version 3
run IndependentFrequencyBandsOneScalarRadioMediumModule-0-20240916-19:13:15-24584
attr configname IndependentFrequencyBandsOneScalarRadioMediumModule
attr datetime 20240916-19:13:15
attr datetimef 20240916-191315
attr experiment IndependentFrequencyBandsOneScalarRadioMediumModule
attr inifile omnetpp.ini
attr iterationvars ""
attr iterationvarsd ""
attr iterationvarsf ""
attr measurement ""
attr network VehiclesNetwork
attr processid 24584
attr repetition 0
attr replication #0
attr resultdir results
attr runnumber 0
attr seedset 0
config image-path ../../inet4.5/images
config network VehiclesNetwork
config *.vehicle[0].wlan[*].radio.channelNumber 0
config *.vehicle[1].wlan[*].radio.channelNumber 1
config *.vehicle[2].wlan[*].radio.channelNumber 2
config *.vehicle[3].wlan[*].radio.channelNumber 3
config *.vehicle[4].wlan[*].radio.channelNumber 4
config *.vehicle[5].wlan[*].radio.channelNumber 5
config *.vehicle[6].wlan[*].radio.channelNumber 6
config *.vehicle[7].wlan[*].radio.channelNumber 7
config *.vehicle[8].wlan[*].radio.channelNumber 8
config *.vehicle[9].wlan[*].radio.channelNumber 9
config *.vehicle[10].wlan[*].radio.channelNumber 10
config *.vehicle[11].wlan[*].radio.channelNumber 11
config *.vehicle[12].wlan[*].radio.channelNumber 12
config *.vehicle[13].wlan[*].radio.channelNumber 13
config *.vehicle[14].wlan[*].radio.channelNumber 14
config *.vehicle[15].wlan[*].radio.channelNumber 15
config *.vehicle[16].wlan[*].radio.channelNumber 16
config *.vehicle[17].wlan[*].radio.channelNumber 17
config *.vehicle[18].wlan[*].radio.channelNumber 18
config *.vehicle[19].wlan[*].radio.channelNumber 19
config *.vehicle[20].wlan[*].radio.channelNumber 20
config *.vehicle[21].wlan[*].radio.channelNumber 21
config *.vehicle[22].wlan[*].radio.channelNumber 22
config *.vehicle[23].wlan[*].radio.channelNumber 23
config *.vehicle[24].wlan[*].radio.channelNumber 24
config *.vehicle[25].wlan[*].radio.channelNumber 25
config *.vehicle[26].wlan[*].radio.channelNumber 26
config *.vehicle[27].wlan[*].radio.channelNumber 27
config *.vehicle[28].wlan[*].radio.channelNumber 28
config *.vehicle[29].wlan[*].radio.channelNumber 29
config *.vehicle[30].wlan[*].radio.channelNumber 30
config *.vehicle[31].wlan[*].radio.channelNumber 31
config network VehiclesNetwork
config sim-time-limit 120s
config **.scalar-recording true
config **.numVehicles 32
config *.vehicle[*].xmlFilename "\"data.xml\""
config scheduler-class cRealTimeScheduler
config **.cmdenv-log-level error
config record-eventlog false
config **.arp.typename GlobalArp
config *.visualizer.*.dataLinkVisualizer.displayLinks true
config *.visualizer.*.physicalLinkVisualizer.displayLinks true
config *.visualizer.*.infoVisualizer.displayInfos true
config *.visualizer.*.infoVisualizer.modules "\"*.vehicle*.app[0] OR *.vehicle*.wlan[0].mac.dcf.channelAccess.contention\""
config *.visualizer.*.infoVisualizer.format "\"%t\""
config *.visualizer.*.mediumVisualizer.displaySignals true
config *.visualizer.**.fadeOutMode "\"animationTime\""
config *.vehicle[*].numApps 1
config *.vehicle[*].app[0].typename UdpBasicApp
config *.vehicle[*].app[*].destAddresses "\"vehicle[*]\""
config *.vehicle[*].app[*].destPort 1000
config *.vehicle[*].app[*].messageLength 1000Byte
config *.vehicle[*].app[*].sendInterval 100ms
config *.vehicle[*].udpSink.typename UdpSink
config *.vehicle[*].udpSink.localPort 1000

par VehiclesNetwork.vehicle[0].out[1].channel typename "\"ned.DelayChannel\""
par VehiclesNetwork.vehicle[0].out[1].channel disabled false
attr mutable ""
par VehiclesNetwork.vehicle[0].out[1].channel delay 0.1s
attr mutable ""
attr unit s
par VehiclesNetwork.vehicle[0].out[2].channel typename "\"ned.DelayChannel\""
par VehiclesNetwork.vehicle[0].out[2].channel disabled false
attr mutable ""
par VehiclesNetwork.vehicle[0].out[2].channel delay 0.1s
attr mutable ""
attr unit s
par VehiclesNetwork.vehicle[0].out[3].channel typename "\"ned.DelayChannel\""
par VehiclesNetwork.vehicle[0].out[3].channel disabled false
attr mutable ""
par VehiclesNetwork.vehicle[0].out[3].channel delay 0.1s
attr mutable ""
attr unit s
par VehiclesNetwork.vehicle[0].out[4].channel typename "\"ned.DelayChannel\""
par VehiclesNetwork.vehicle[0].out[4].channel disabled false
attr mutable ""
par VehiclesNetwork.vehicle[0].out[4].channel delay 0.1s
attr mutable ""
attr unit s
par VehiclesNetwork.vehicle[0].out[5].channel typename "\"ned.DelayChannel\""
par VehiclesNetwork.vehicle[0].out[5].channel disabled false
attr mutable ""
par VehiclesNetwork.vehicle[0].out[5].channel delay 0.1s
attr mutable ""
attr unit s
par VehiclesNetwork.vehicle[0].out[6].channel typename "\"ned.DelayChannel\""
par VehiclesNetwork.vehicle[0].out[6].channel disabled false
attr mutable ""
par VehiclesNetwork.vehicle[0].out[6].channel delay 0.1s
attr mutable ""
attr unit s
par VehiclesNetwork.vehicle[0].out[7].channel typename "\"ned.DelayChannel\""
par VehiclesNetwork.vehicle[0].out[7].channel disabled false
attr mutable ""
par VehiclesNetwork.vehicle[0].out[7].channel delay 0.1s
attr mutable ""
attr unit s
par VehiclesNetwork.vehicle[0].out[8].channel typename "\"ned.DelayChannel\""
par VehiclesNetwork.vehicle[0].out[8].channel disabled false
attr mutable ""
par VehiclesNetwork.vehicle[0].out[8].channel delay 0.1s
attr mutable ""
attr unit s
par VehiclesNetwork.vehicle[0].out[9].channel typename "\"ned.DelayChannel\""
par VehiclesNetwork.vehicle[0].out[9].channel disabled false
attr mutable ""
par VehiclesNetwork.vehicle[0].out[9].channel delay 0.1s
attr mutable ""
attr unit s
par VehiclesNetwork.vehicle[0].out[10].channel typename "\"ned.DelayChannel\""
par VehiclesNetwork.vehicle[0].out[10].channel disabled false
attr mutable ""
par VehiclesNetwork.vehicle[0].out[10].channel delay 0.1s
attr mutable ""
attr unit s
par VehiclesNetwork.vehicle[0].out[11].channel typename "\"ned.DelayChannel\""
par VehiclesNetwork.vehicle[0].out[11].channel disabled false
attr mutable ""
par VehiclesNetwork.vehicle[0].out[11].channel delay 0.1s
attr mutable ""
attr unit s
par VehiclesNetwork.vehicle[0].out[12].channel typename "\"ned.DelayChannel\""
par VehiclesNetwork.vehicle[0].out[12].channel disabled false
attr mutable ""
par VehiclesNetwork.vehicle[0].out[12].channel delay 0.1s
attr mutable ""
attr unit s
par VehiclesNetwork.vehicle[0].out[13].channel typename "\"ned.DelayChannel\""
par VehiclesNetwork.vehicle[0].out[13].channel disabled false
attr mutable ""
par VehiclesNetwork.vehicle[0].out[13].channel delay 0.1s
attr mutable ""
attr unit s
par VehiclesNetwork.vehicle[0].out[14].channel typename "\"ned.DelayChannel\""
par VehiclesNetwork.vehicle[0].out[14].channel disabled false
attr mutable ""
par VehiclesNetwork.vehicle[0].out[14].channel delay 0.1s
attr mutable ""
attr unit s
par VehiclesNetwork.vehicle[0].out[15].channel typename "\"ned.DelayChannel\""
par VehiclesNetwork.vehicle[0].out[15].channel disabled false
attr mutable ""
par VehiclesNetwork.vehicle[0].out[15].channel delay 0.1s
attr mutable ""
attr unit s
par VehiclesNetwork.vehicle[0].out[16].channel typename "\"ned.DelayChannel\""
par VehiclesNetwork.vehicle[0].out[16].channel disabled false
attr mutable ""
par VehiclesNetwork.vehicle[0].out[16].channel delay 0.1s
attr mutable ""
attr unit s
par VehiclesNetwork.vehicle[0].out[17].channel typename "\"ned.DelayChannel\""
par VehiclesNetwork.vehicle[0].out[17].channel disabled false
attr mutable ""
par VehiclesNetwork.vehicle[0].out[17].channel delay 0.1s
attr mutable ""
attr unit s
par VehiclesNetwork.vehicle[0].out[18].channel typename "\"ned.DelayChannel\""
par VehiclesNetwork.vehicle[0].out[18].channel disabled false
attr mutable ""
par VehiclesNetwork.vehicle[0].out[18].channel delay 0.1s
attr mutable ""
attr unit s
par VehiclesNetwork.vehicle[0].out[19].channel typename "\"ned.DelayChannel\""
par VehiclesNetwork.vehicle[0].out[19].channel disabled false
attr mutable ""
par VehiclesNetwork.vehicle[0].out[19].channel delay 0.1s
attr mutable ""
attr unit s
par VehiclesNetwork.vehicle[0].out[20].channel typename "\"ned.DelayChannel\""
par VehiclesNetwork.vehicle[0].out[20].channel disabled false
attr mutable ""
par VehiclesNetwork.vehicle[0].out[20].channel delay 0.1s
attr mutable ""
attr unit s
par VehiclesNetwork.vehicle[0].out[21].channel typename "\"ned.DelayChannel\""
par VehiclesNetwork.vehicle[0].out[21].channel disabled false
attr mutable ""
par VehiclesNetwork.vehicle[0].out[21].channel delay 0.1s
attr mutable ""
attr unit s
par VehiclesNetwork.vehicle[0].out[22].channel typename "\"ned.DelayChannel\""
par VehiclesNetwork.vehicle[0].out[22].channel disabled false
attr mutable ""
par VehiclesNetwork.vehicle[0].out[22].channel delay 0.1s
attr mutable ""
attr unit s
par VehiclesNetwork.vehicle[0].out[23].channel typename "\"ned.DelayChannel\""
par VehiclesNetwork.vehicle[0].out[23].channel disabled false
attr mutable ""
par VehiclesNetwork.vehicle[0].out[23].channel delay 0.1s
attr mutable ""
attr unit s
par VehiclesNetwork.vehicle[0].out[24].channel typename "\"ned.DelayChannel\""
par VehiclesNetwork.vehicle[0].out[24].channel disabled false
attr mutable ""
par VehiclesNetwork.vehicle[0].out[24].channel delay 0.1s
attr mutable ""
attr unit s
par VehiclesNetwork.vehicle[0].out[25].channel typename "\"ned.DelayChannel\""
par VehiclesNetwork.vehicle[0].out[25].channel disabled false
attr mutable ""
par VehiclesNetwork.vehicle[0].out[25].channel delay 0.1s
attr mutable ""
attr unit s
par VehiclesNetwork.vehicle[0].out[26].channel typename "\"ned.DelayChannel\""
par VehiclesNetwork.vehicle[0].out[26].channel disabled false
attr mutable ""
par VehiclesNetwork.vehicle[0].out[26].channel delay 0.1s
attr mutable ""
attr unit s
par VehiclesNetwork.vehicle[0].out[27].channel typename "\"ned.DelayChannel\""
par VehiclesNetwork.vehicle[0].out[27].channel disabled false
attr mutable ""
par VehiclesNetwork.vehicle[0].out[27].channel delay 0.1s
attr mutable ""
attr unit s
par VehiclesNetwork.vehicle[0].out[28].channel typename "\"ned.DelayChannel\""
par VehiclesNetwork.vehicle[0].out[28].channel disabled false
attr mutable ""
par VehiclesNetwork.vehicle[0].out[28].channel delay 0.1s
attr mutable ""
attr unit s
par VehiclesNetwork.vehicle[0].out[29].channel typename "\"ned.DelayChannel\""
par VehiclesNetwork.vehicle[0].out[29].channel disabled false
attr mutable ""
par VehiclesNetwork.vehicle[0].out[29].channel delay 0.1s
attr mutable ""
attr unit s
par VehiclesNetwork.vehicle[0].out[30].channel typename "\"ned.DelayChannel\""
par VehiclesNetwork.vehicle[0].out[30].channel disabled false
attr mutable ""
par VehiclesNetwork.vehicle[0].out[30].channel delay 0.1s
attr mutable ""
attr unit s
par VehiclesNetwork.vehicle[0].out[31].channel typename "\"ned.DelayChannel\""
par VehiclesNetwork.vehicle[0].out[31].channel disabled false
attr mutable ""
par VehiclesNetwork.vehicle[0].out[31].channel delay 0.1s
attr mutable ""
attr unit s
par VehiclesNetwork.vehicle[1].out[0].channel typename "\"ned.DelayChannel\""
par VehiclesNetwork.vehicle[1].out[0].channel disabled false
attr mutable ""
par VehiclesNetwork.vehicle[1].out[0].channel delay 0.1s
attr mutable ""
attr unit s
par VehiclesNetwork.vehicle[1].out[2].channel typename "\"ned.DelayChannel\""
par VehiclesNetwork.vehicle[1].out[2].channel disabled false
attr mutable ""
par VehiclesNetwork.vehicle[1].out[2].channel delay 0.1s
attr mutable ""
attr unit s
par VehiclesNetwork.vehicle[1].out[3].channel typename "\"ned.DelayChannel\""
par VehiclesNetwork.vehicle[1].out[3].channel disabled false
attr mutable ""
par VehiclesNetwork.vehicle[1].out[3].channel delay 0.1s
attr mutable ""
attr unit s
par VehiclesNetwork.vehicle[1].out[4].channel typename "\"ned.DelayChannel\""
par VehiclesNetwork.vehicle[1].out[4].channel disabled false
attr mutable ""
par VehiclesNetwork.vehicle[1].out[4].channel delay 0.1s
attr mutable ""
attr unit s
par VehiclesNetwork.vehicle[1].out[5].channel typename "\"ned.DelayChannel\""
par VehiclesNetwork.vehicle[1].out[5].channel disabled false
attr mutable ""
par VehiclesNetwork.vehicle[1].out[5].channel delay 0.1s
attr mutable ""
attr unit s
par VehiclesNetwork.vehicle[1].out[6].channel typename "\"ned.DelayChannel\""
par VehiclesNetwork.vehicle[1].out[6].channel disabled false
attr mutable ""
par VehiclesNetwork.vehicle[1].out[6].channel delay 0.1s
attr mutable ""
attr unit s
par VehiclesNetwork.vehicle[1].out[7].channel typename "\"ned.DelayChannel\""
par VehiclesNetwork.vehicle[1].out[7].channel disabled false
attr mutable ""
par VehiclesNetwork.vehicle[1].out[7].channel delay 0.1s
attr mutable ""
attr unit s
par VehiclesNetwork.vehicle[1].out[8].channel typename "\"ned.DelayChannel\""
par VehiclesNetwork.vehicle[1].out[8].channel disabled false
attr mutable ""
par VehiclesNetwork.vehicle[1].out[8].channel delay 0.1s
attr mutable ""
attr unit s
par VehiclesNetwork.vehicle[1].out[9].channel typename "\"ned.DelayChannel\""
par VehiclesNetwork.vehicle[1].out[9].channel disabled false
attr mutable ""
par VehiclesNetwork.vehicle[1].out[9].channel delay 0.1s
attr mutable ""
attr unit s
par VehiclesNetwork.vehicle[1].out[10].channel typename "\"ned.DelayChannel\""
par VehiclesNetwork.vehicle[1].out[10].channel disabled false
attr mutable ""
par VehiclesNetwork.vehicle[1].out[10].channel delay 0.1s
attr mutable ""
attr unit s
par VehiclesNetwork.vehicle[1].out[11].channel typename "\"ned.DelayChannel\""
par VehiclesNetwork.vehicle[1].out[11].channel disabled false
attr mutable ""
par VehiclesNetwork.vehicle[1].out[11].channel delay 0.1s
attr mutable ""
attr unit s
par VehiclesNetwork.vehicle[1].out[12].channel typename "\"ned.DelayChannel\""
par VehiclesNetwork.vehicle[1].out[12].channel disabled false
attr mutable ""
par VehiclesNetwork.vehicle[1].out[12].channel delay 0.1s
attr mutable ""
attr unit s
par VehiclesNetwork.vehicle[1].out[13].channel typename "\"ned.DelayChannel\""
par VehiclesNetwork.vehicle[1].out[13].channel disabled false
attr mutable ""
par VehiclesNetwork.vehicle[1].out[13].channel delay 0.1s
attr mutable ""
attr unit s
par VehiclesNetwork.vehicle[1].out[14].channel typename "\"ned.DelayChannel\""
par VehiclesNetwork.vehicle[1].out[14].channel disabled false
attr mutable ""
par VehiclesNetwork.vehicle[1].out[14].channel delay 0.1s
attr mutable ""
attr unit s
par VehiclesNetwork.vehicle[1].out[15].channel typename "\"ned.DelayChannel\""
par VehiclesNetwork.vehicle[1].out[15].channel disabled false
attr mutable ""
par VehiclesNetwork.vehicle[1].out[15].channel delay 0.1s
attr mutable ""
attr unit s
par VehiclesNetwork.vehicle[1].out[16].channel typename "\"ned.DelayChannel\""
par VehiclesNetwork.vehicle[1].out[16].channel disabled false
attr mutable ""
par VehiclesNetwork.vehicle[1].out[16].channel delay 0.1s
attr mutable ""
attr unit s
par VehiclesNetwork.vehicle[1].out[17].channel typename "\"ned.DelayChannel\""
par VehiclesNetwork.vehicle[1].out[17].channel disabled false
attr mutable ""
par VehiclesNetwork.vehicle[1].out[17].channel delay 0.1s
attr mutable ""
attr unit s
par VehiclesNetwork.vehicle[1].out[18].channel typename "\"ned.DelayChannel\""
par VehiclesNetwork.vehicle[1].out[18].channel disabled false
attr mutable ""
par VehiclesNetwork.vehicle[1].out[18].channel delay 0.1s
attr mutable ""
attr unit s
par VehiclesNetwork.vehicle[1].out[19].channel typename "\"ned.DelayChannel\""
par VehiclesNetwork.vehicle[1].out[19].channel disabled false
attr mutable ""
par VehiclesNetwork.vehicle[1].out[19].channel delay 0.1s
attr mutable ""
attr unit s
par VehiclesNetwork.vehicle[1].out[20].channel typename "\"ned.DelayChannel\""
par VehiclesNetwork.vehicle[1].out[20].channel disabled false
attr mutable ""
par VehiclesNetwork.vehicle[1].out[20].channel delay 0.1s
attr mutable ""
attr unit s
par VehiclesNetwork.vehicle[1].out[21].channel typename "\"ned.DelayChannel\""
par VehiclesNetwork.vehicle[1].out[21].channel disabled false
attr mutable ""
par VehiclesNetwork.vehicle[1].out[21].channel delay 0.1s
attr mutable ""
attr unit s
par VehiclesNetwork.vehicle[1].out[22].channel typename "\"ned.DelayChannel\""
par VehiclesNetwork.vehicle[1].out[22].channel disabled false
attr mutable ""
par VehiclesNetwork.vehicle[1].out[22].channel delay 0.1s
attr mutable ""
attr unit s
par VehiclesNetwork.vehicle[1].out[23].channel typename "\"ned.DelayChannel\""
par VehiclesNetwork.vehicle[1].out[23].channel disabled false
attr mutable ""
par VehiclesNetwork.vehicle[1].out[23].channel delay 0.1s
attr mutable ""
attr unit s
par VehiclesNetwork.vehicle[1].out[24].channel typename "\"ned.DelayChannel\""
par VehiclesNetwork.vehicle[1].out[24].channel disabled false
attr mutable ""
par VehiclesNetwork.vehicle[1].out[24].channel delay 0.1s
attr mutable ""
attr unit s
par VehiclesNetwork.vehicle[1].out[25].channel typename "\"ned.DelayChannel\""
par VehiclesNetwork.vehicle[1].out[25].channel disabled false
attr mutable ""
par VehiclesNetwork.vehicle[1].out[25].channel delay 0.1s
attr mutable ""
attr unit s
par VehiclesNetwork.vehicle[1].out[26].channel typename "\"ned.DelayChannel\""
par VehiclesNetwork.vehicle[1].out[26].channel disabled false
attr mutable ""
par VehiclesNetwork.vehicle[1].out[26].channel delay 0.1s
attr mutable ""
attr unit s
par VehiclesNetwork.vehicle[1].out[27].channel typename "\"ned.DelayChannel\""
par VehiclesNetwork.vehicle[1].out[27].channel disabled false
attr mutable ""
par VehiclesNetwork.vehicle[1].out[27].channel delay 0.1s
attr mutable ""
attr unit s
par VehiclesNetwork.vehicle[1].out[28].channel typename "\"ned.DelayChannel\""
par VehiclesNetwork.vehicle[1].out[28].channel disabled false
attr mutable ""
par VehiclesNetwork.vehicle[1].out[28].channel delay 0.1s
attr mutable ""
attr unit s
par VehiclesNetwork.vehicle[1].out[29].channel typename "\"ned.DelayChannel\""
par VehiclesNetwork.vehicle[1].out[29].channel disabled false
attr mutable ""
par VehiclesNetwork.vehicle[1].out[29].channel delay 0.1s
attr mutable ""
attr unit s
par VehiclesNetwork.vehicle[1].out[30].channel typename "\"ned.DelayChannel\""
par VehiclesNetwork.vehicle[1].out[30].channel disabled false
attr mutable ""
par VehiclesNetwork.vehicle[1].out[30].channel delay 0.1s
attr mutable ""
attr unit s
par VehiclesNetwork.vehicle[1].out[31].channel typename "\"ned.DelayChannel\""
par VehiclesNetwork.vehicle[1].out[31].channel disabled false
attr mutable ""
par VehiclesNetwork.vehicle[1].out[31].channel delay 0.1s
attr mutable ""
attr unit s
par VehiclesNetwork.vehicle[2].out[0].channel typename "\"ned.DelayChannel\""
par VehiclesNetwork.vehicle[2].out[0].channel disabled false
attr mutable ""
par VehiclesNetwork.vehicle[2].out[0].channel delay 0.1s
attr mutable ""
attr unit s
par VehiclesNetwork.vehicle[2].out[1].channel typename "\"ned.DelayChannel\""
par VehiclesNetwork.vehicle[2].out[1].channel disabled false
attr mutable ""
par VehiclesNetwork.vehicle[2].out[1].channel delay 0.1s
attr mutable ""
attr unit s
par VehiclesNetwork.vehicle[2].out[3].channel typename "\"ned.DelayChannel\""
par VehiclesNetwork.vehicle[2].out[3].channel disabled false
attr mutable ""
par VehiclesNetwork.vehicle[2].out[3].channel delay 0.1s
attr mutable ""
attr unit s
par VehiclesNetwork.vehicle[2].out[4].channel typename "\"ned.DelayChannel\""
par VehiclesNetwork.vehicle[2].out[4].channel disabled false
attr mutable ""
par VehiclesNetwork.vehicle[2].out[4].channel delay 0.1s
attr mutable ""
attr unit s
par VehiclesNetwork.vehicle[2].out[5].channel typename "\"ned.DelayChannel\""
par VehiclesNetwork.vehicle[2].out[5].channel disabled false
attr mutable ""
par VehiclesNetwork.vehicle[2].out[5].channel delay 0.1s
attr mutable ""
attr unit s
par VehiclesNetwork.vehicle[2].out[6].channel typename "\"ned.DelayChannel\""
par VehiclesNetwork.vehicle[2].out[6].channel disabled false
attr mutable ""
par VehiclesNetwork.vehicle[2].out[6].channel delay 0.1s
attr mutable ""
attr unit s
par VehiclesNetwork.vehicle[2].out[7].channel typename "\"ned.DelayChannel\""
par VehiclesNetwork.vehicle[2].out[7].channel disabled false
attr mutable ""
par VehiclesNetwork.vehicle[2].out[7].channel delay 0.1s
attr mutable ""
attr unit s
par VehiclesNetwork.vehicle[2].out[8].channel typename "\"ned.DelayChannel\""
par VehiclesNetwork.vehicle[2].out[8].channel disabled false
attr mutable ""
par VehiclesNetwork.vehicle[2].out[8].channel delay 0.1s
attr mutable ""
attr unit s
par VehiclesNetwork.vehicle[2].out[9].channel typename "\"ned.DelayChannel\""
par VehiclesNetwork.vehicle[2].out[9].channel disabled false
attr mutable ""
par VehiclesNetwork.vehicle[2].out[9].channel delay 0.1s
attr mutable ""
attr unit s
par VehiclesNetwork.vehicle[2].out[10].channel typename "\"ned.DelayChannel\""
par VehiclesNetwork.vehicle[2].out[10].channel disabled false
attr mutable ""
par VehiclesNetwork.vehicle[2].out[10].channel delay 0.1s
attr mutable ""
attr unit s
par VehiclesNetwork.vehicle[2].out[11].channel typename "\"ned.DelayChannel\""
par VehiclesNetwork.vehicle[2].out[11].channel disabled false
attr mutable ""
par VehiclesNetwork.vehicle[2].out[11].channel delay 0.1s
attr mutable ""
attr unit s
par VehiclesNetwork.vehicle[2].out[12].channel typename "\"ned.DelayChannel\""
par VehiclesNetwork.vehicle[2].out[12].channel disabled false
attr mutable ""
par VehiclesNetwork.vehicle[2].out[12].channel delay 0.1s
attr mutable ""
attr unit s
par VehiclesNetwork.vehicle[2].out[13].channel typename "\"ned.DelayChannel\""
par VehiclesNetwork.vehicle[2].out[13].channel disabled false
attr mutable ""
par VehiclesNetwork.vehicle[2].out[13].channel delay 0.1s
attr mutable ""
attr unit s
par VehiclesNetwork.vehicle[2].out[14].channel typename "\"ned.DelayChannel\""
par VehiclesNetwork.vehicle[2].out[14].channel disabled false
attr mutable ""
par VehiclesNetwork.vehicle[2].out[14].channel delay 0.1s
attr mutable ""
attr unit s
par VehiclesNetwork.vehicle[2].out[15].channel typename "\"ned.DelayChannel\""
par VehiclesNetwork.vehicle[2].out[15].channel disabled false
attr mutable ""
par VehiclesNetwork.vehicle[2].out[15].channel delay 0.1s
attr mutable ""
attr unit s
par VehiclesNetwork.vehicle[2].out[16].channel typename "\"ned.DelayChannel\""
par VehiclesNetwork.vehicle[2].out[16].channel disabled false
attr mutable ""
par VehiclesNetwork.vehicle[2].out[16].channel delay 0.1s
attr mutable ""
attr unit s
par VehiclesNetwork.vehicle[2].out[17].channel typename "\"ned.DelayChannel\""
par VehiclesNetwork.vehicle[2].out[17].channel disabled false
attr mutable ""
par VehiclesNetwork.vehicle[2].out[17].channel delay 0.1s
attr mutable ""
attr unit s
par VehiclesNetwork.vehicle[2].out[18].channel typename "\"ned.DelayChannel\""
par VehiclesNetwork.vehicle[2].out[18].channel disabled false
attr mutable ""
par VehiclesNetwork.vehicle[2].out[18].channel delay 0.1s
attr mutable ""
attr unit s
par VehiclesNetwork.vehicle[2].out[19].channel typename "\"ned.DelayChannel\""
par VehiclesNetwork.vehicle[2].out[19].channel disabled false
attr mutable ""
par VehiclesNetwork.vehicle[2].out[19].channel delay 0.1s
attr mutable ""
attr unit s
par VehiclesNetwork.vehicle[2].out[20].channel typename "\"ned.DelayChannel\""
par VehiclesNetwork.vehicle[2].out[20].channel disabled false
attr mutable ""
par VehiclesNetwork.vehicle[2].out[20].channel delay 0.1s
attr mutable ""
attr unit s
par VehiclesNetwork.vehicle[2].out[21].channel typename "\"ned.DelayChannel\""
par VehiclesNetwork.vehicle[2].out[21].channel disabled false
attr mutable ""
par VehiclesNetwork.vehicle[2].out[21].channel delay 0.1s
attr mutable ""
attr unit s
par VehiclesNetwork.vehicle[2].out[22].channel typename "\"ned.DelayChannel\""
par VehiclesNetwork.vehicle[2].out[22].channel disabled false
attr mutable ""
par VehiclesNetwork.vehicle[2].out[22].channel delay 0.1s
attr mutable ""
attr unit s
par VehiclesNetwork.vehicle[2].out[23].channel typename "\"ned.DelayChannel\""
par VehiclesNetwork.vehicle[2].out[23].channel disabled false
attr mutable ""
par VehiclesNetwork.vehicle[2].out[23].channel delay 0.1s
attr mutable ""
attr unit s
par VehiclesNetwork.vehicle[2].out[24].channel typename "\"ned.DelayChannel\""
par VehiclesNetwork.vehicle[2].out[24].channel disabled false
attr mutable ""
par VehiclesNetwork.vehicle[2].out[24].channel delay 0.1s
attr mutable ""
attr unit s
par VehiclesNetwork.vehicle[2].out[25].channel typename "\"ned.DelayChannel\""
par VehiclesNetwork.vehicle[2].out[25].channel disabled false
attr mutable ""
par VehiclesNetwork.vehicle[2].out[25].channel delay 0.1s
attr mutable ""
attr unit s
par VehiclesNetwork.vehicle[2].out[26].channel typename "\"ned.DelayChannel\""
par VehiclesNetwork.vehicle[2].out[26].channel disabled false
attr mutable ""
par VehiclesNetwork.vehicle[2].out[26].channel delay 0.1s
attr mutable ""
attr unit s
par VehiclesNetwork.vehicle[2].out[27].channel typename "\"ned.DelayChannel\""
par VehiclesNetwork.vehicle[2].out[27].channel disabled false
attr mutable ""
par VehiclesNetwork.vehicle[2].out[27].channel delay 0.1s
attr mutable ""
attr unit s
par VehiclesNetwork.vehicle[2].out[28].channel typename "\"ned.DelayChannel\""
par VehiclesNetwork.vehicle[2].out[28].channel disabled false
attr mutable ""
par VehiclesNetwork.vehicle[2].out[28].channel delay 0.1s
attr mutable ""
attr unit s
par VehiclesNetwork.vehicle[2].out[29].channel typename "\"ned.DelayChannel\""
par VehiclesNetwork.vehicle[2].out[29].channel disabled false
attr mutable ""
par VehiclesNetwork.vehicle[2].out[29].channel delay 0.1s
attr mutable ""
attr unit s
par VehiclesNetwork.vehicle[2].out[30].channel typename "\"ned.DelayChannel\""
par VehiclesNetwork.vehicle[2].out[30].channel disabled false
attr mutable ""
par VehiclesNetwork.vehicle[2].out[30].channel delay 0.1s
attr mutable ""
attr unit s
par VehiclesNetwork.vehicle[2].out[31].channel typename "\"ned.DelayChannel\""
par VehiclesNetwork.vehicle[2].out[31].channel disabled false
attr mutable ""
par VehiclesNetwork.vehicle[2].out[31].channel delay 0.1s
attr mutable ""
attr unit s
par VehiclesNetwork.vehicle[3].out[0].channel typename "\"ned.DelayChannel\""
par VehiclesNetwork.vehicle[3].out[0].channel disabled false
attr mutable ""
par VehiclesNetwork.vehicle[3].out[0].channel delay 0.1s
attr mutable ""
attr unit s
par VehiclesNetwork.vehicle[3].out[1].channel typename "\"ned.DelayChannel\""
par VehiclesNetwork.vehicle[3].out[1].channel disabled false
attr mutable ""
par VehiclesNetwork.vehicle[3].out[1].channel delay 0.1s
attr mutable ""
attr unit s
par VehiclesNetwork.vehicle[3].out[2].channel typename "\"ned.DelayChannel\""
par VehiclesNetwork.vehicle[3].out[2].channel disabled false
attr mutable ""
par VehiclesNetwork.vehicle[3].out[2].channel delay 0.1s
attr mutable ""
attr unit s
par VehiclesNetwork.vehicle[3].out[4].channel typename "\"ned.DelayChannel\""
par VehiclesNetwork.vehicle[3].out[4].channel disabled false
attr mutable ""
par VehiclesNetwork.vehicle[3].out[4].channel delay 0.1s
attr mutable ""
attr unit s
par VehiclesNetwork.vehicle[3].out[5].channel typename "\"ned.DelayChannel\""
par VehiclesNetwork.vehicle[3].out[5].channel disabled false
attr mutable ""
par VehiclesNetwork.vehicle[3].out[5].channel delay 0.1s
attr mutable ""
attr unit s
par VehiclesNetwork.vehicle[3].out[6].channel typename "\"ned.DelayChannel\""
par VehiclesNetwork.vehicle[3].out[6].channel disabled false
attr mutable ""
par VehiclesNetwork.vehicle[3].out[6].channel delay 0.1s
attr mutable ""
attr unit s
par VehiclesNetwork.vehicle[3].out[7].channel typename "\"ned.DelayChannel\""
par VehiclesNetwork.vehicle[3].out[7].channel disabled false
attr mutable ""
par VehiclesNetwork.vehicle[3].out[7].channel delay 0.1s
attr mutable ""
attr unit s
par VehiclesNetwork.vehicle[3].out[8].channel typename "\"ned.DelayChannel\""
par VehiclesNetwork.vehicle[3].out[8].channel disabled false
attr mutable ""
par VehiclesNetwork.vehicle[3].out[8].channel delay 0.1s
attr mutable ""
attr unit s
par VehiclesNetwork.vehicle[3].out[9].channel typename "\"ned.DelayChannel\""
par VehiclesNetwork.vehicle[3].out[9].channel disabled false
attr mutable ""
par VehiclesNetwork.vehicle[3].out[9].channel delay 0.1s
attr mutable ""
attr unit s
par VehiclesNetwork.vehicle[3].out[10].channel typename "\"ned.DelayChannel\""
par VehiclesNetwork.vehicle[3].out[10].channel disabled false
attr mutable ""
par VehiclesNetwork.vehicle[3].out[10].channel delay 0.1s
attr mutable ""
attr unit s
par VehiclesNetwork.vehicle[3].out[11].channel typename "\"ned.DelayChannel\""
par VehiclesNetwork.vehicle[3].out[11].channel disabled false
attr mutable ""
par VehiclesNetwork.vehicle[3].out[11].channel delay 0.1s
attr mutable ""
attr unit s
par VehiclesNetwork.vehicle[3].out[12].channel typename "\"ned.DelayChannel\""
par VehiclesNetwork.vehicle[3].out[12].channel disabled false
attr mutable ""
par VehiclesNetwork.vehicle[3].out[12].channel delay 0.1s
attr mutable ""
attr unit s
par VehiclesNetwork.vehicle[3].out[13].channel typename "\"ned.DelayChannel\""
par VehiclesNetwork.vehicle[3].out[13].channel disabled false
attr mutable ""
par VehiclesNetwork.vehicle[3].out[13].channel delay 0.1s
attr mutable ""
attr unit s
par VehiclesNetwork.vehicle[3].out[14].channel typename "\"ned.DelayChannel\""
par VehiclesNetwork.vehicle[3].out[14].channel disabled false
attr mutable ""
par VehiclesNetwork.vehicle[3].out[14].channel delay 0.1s
attr mutable ""
attr unit s
par VehiclesNetwork.vehicle[3].out[15].channel typename "\"ned.DelayChannel\""
par VehiclesNetwork.vehicle[3].out[15].channel disabled false
attr mutable ""
par VehiclesNetwork.vehicle[3].out[15].channel delay 0.1s
attr mutable ""
attr unit s
par VehiclesNetwork.vehicle[3].out[16].channel typename "\"ned.DelayChannel\""
par VehiclesNetwork.vehicle[3].out[16].channel disabled false
attr mutable ""
par VehiclesNetwork.vehicle[3].out[16].channel delay 0.1s
attr mutable ""
attr unit s
par VehiclesNetwork.vehicle[3].out[17].channel typename "\"ned.DelayChannel\""
par VehiclesNetwork.vehicle[3].out[17].channel disabled false
attr mutable ""
par VehiclesNetwork.vehicle[3].out[17].channel delay 0.1s
attr mutable ""
attr unit s
par VehiclesNetwork.vehicle[3].out[18].channel typename "\"ned.DelayChannel\""
par VehiclesNetwork.vehicle[3].out[18].channel disabled false
attr mutable ""
par VehiclesNetwork.vehicle[3].out[18].channel delay 0.1s
attr mutable ""
attr unit s
par VehiclesNetwork.vehicle[3].out[19].channel typename "\"ned.DelayChannel\""
par VehiclesNetwork.vehicle[3].out[19].channel disabled false
attr mutable ""
par VehiclesNetwork.vehicle[3].out[19].channel delay 0.1s
attr mutable ""
attr unit s
par VehiclesNetwork.vehicle[3].out[20].channel typename "\"ned.DelayChannel\""
par VehiclesNetwork.vehicle[3].out[20].channel disabled false
attr mutable ""
par VehiclesNetwork.vehicle[3].out[20].channel delay 0.1s
attr mutable ""
attr unit s
par VehiclesNetwork.vehicle[3].out[21].channel typename "\"ned.DelayChannel\""
par VehiclesNetwork.vehicle[3].out[21].channel disabled false
attr mutable ""
par VehiclesNetwork.vehicle[3].out[21].channel delay 0.1s
attr mutable ""
attr unit s
par VehiclesNetwork.vehicle[3].out[22].channel typename "\"ned.DelayChannel\""
par VehiclesNetwork.vehicle[3].out[22].channel disabled false
attr mutable ""
par VehiclesNetwork.vehicle[3].out[22].channel delay 0.1s
attr mutable ""
attr unit s
par VehiclesNetwork.vehicle[3].out[23].channel typename "\"ned.DelayChannel\""
par VehiclesNetwork.vehicle[3].out[23].channel disabled false
attr mutable ""
par VehiclesNetwork.vehicle[3].out[23].channel delay 0.1s
attr mutable ""
attr unit s
par VehiclesNetwork.vehicle[3].out[24].channel typename "\"ned.DelayChannel\""
par VehiclesNetwork.vehicle[3].out[24].channel disabled false
attr mutable ""
par VehiclesNetwork.vehicle[3].out[24].channel delay 0.1s
attr mutable ""
attr unit s
par VehiclesNetwork.vehicle[3].out[25].channel typename "\"ned.DelayChannel\""
par VehiclesNetwork.vehicle[3].out[25].channel disabled false
attr mutable ""
par VehiclesNetwork.vehicle[3].out[25].channel delay 0.1s
attr mutable ""
attr unit s
par VehiclesNetwork.vehicle[3].out[26].channel typename "\"ned.DelayChannel\""
par VehiclesNetwork.vehicle[3].out[26].channel disabled false
attr mutable ""
par VehiclesNetwork.vehicle[3].out[26].channel delay 0.1s
attr mutable ""
attr unit s
par VehiclesNetwork.vehicle[3].out[27].channel typename "\"ned.DelayChannel\""
par VehiclesNetwork.vehicle[3].out[27].channel disabled false
attr mutable ""
par VehiclesNetwork.vehicle[3].out[27].channel delay 0.1s
attr mutable ""
attr unit s
par VehiclesNetwork.vehicle[3].out[28].channel typename "\"ned.DelayChannel\""
par VehiclesNetwork.vehicle[3].out[28].channel disabled false
attr mutable ""
par VehiclesNetwork.vehicle[3].out[28].channel delay 0.1s
attr mutable ""
attr unit s
par VehiclesNetwork.vehicle[3].out[29].channel typename "\"ned.DelayChannel\""
par VehiclesNetwork.vehicle[3].out[29].channel disabled false
attr mutable ""
par VehiclesNetwork.vehicle[3].out[29].channel delay 0.1s
attr mutable ""
attr unit s
par VehiclesNetwork.vehicle[3].out[30].channel typename "\"ned.DelayChannel\""
par VehiclesNetwork.vehicle[3].out[30].channel disabled false
attr mutable ""
par VehiclesNetwork.vehicle[3].out[30].channel delay 0.1s
attr mutable ""
attr unit s
par VehiclesNetwork.vehicle[3].out[31].channel typename "\"ned.DelayChannel\""
par VehiclesNetwork.vehicle[3].out[31].channel disabled false
attr mutable ""
par VehiclesNetwork.vehicle[3].out[31].channel delay 0.1s
attr mutable ""
attr unit s
par VehiclesNetwork.vehicle[4].out[0].channel typename "\"ned.DelayChannel\""
par VehiclesNetwork.vehicle[4].out[0].channel disabled false
attr mutable ""
par VehiclesNetwork.vehicle[4].out[0].channel delay 0.1s
attr mutable ""
attr unit s
par VehiclesNetwork.vehicle[4].out[1].channel typename "\"ned.DelayChannel\""
par VehiclesNetwork.vehicle[4].out[1].channel disabled false
attr mutable ""
par VehiclesNetwork.vehicle[4].out[1].channel delay 0.1s
attr mutable ""
attr unit s
par VehiclesNetwork.vehicle[4].out[2].channel typename "\"ned.DelayChannel\""
par VehiclesNetwork.vehicle[4].out[2].channel disabled false
attr mutable ""
par VehiclesNetwork.vehicle[4].out[2].channel delay 0.1s
attr mutable ""
attr unit s
par VehiclesNetwork.vehicle[4].out[3].channel typename "\"ned.DelayChannel\""
par VehiclesNetwork.vehicle[4].out[3].channel disabled false
attr mutable ""
par VehiclesNetwork.vehicle[4].out[3].channel delay 0.1s
attr mutable ""
attr unit s
par VehiclesNetwork.vehicle[4].out[5].channel typename "\"ned.DelayChannel\""
par VehiclesNetwork.vehicle[4].out[5].channel disabled false
attr mutable ""
par VehiclesNetwork.vehicle[4].out[5].channel delay 0.1s
attr mutable ""
attr unit s
par VehiclesNetwork.vehicle[4].out[6].channel typename "\"ned.DelayChannel\""
par VehiclesNetwork.vehicle[4].out[6].channel disabled false
attr mutable ""
par VehiclesNetwork.vehicle[4].out[6].channel delay 0.1s
attr mutable ""
attr unit s
par VehiclesNetwork.vehicle[4].out[7].channel typename "\"ned.DelayChannel\""
par VehiclesNetwork.vehicle[4].out[7].channel disabled false
attr mutable ""
par VehiclesNetwork.vehicle[4].out[7].channel delay 0.1s
attr mutable ""
attr unit s
par VehiclesNetwork.vehicle[4].out[8].channel typename "\"ned.DelayChannel\""
par VehiclesNetwork.vehicle[4].out[8].channel disabled false
attr mutable ""
par VehiclesNetwork.vehicle[4].out[8].channel delay 0.1s
attr mutable ""
attr unit s
par VehiclesNetwork.vehicle[4].out[9].channel typename "\"ned.DelayChannel\""
par VehiclesNetwork.vehicle[4].out[9].channel disabled false
attr mutable ""
par VehiclesNetwork.vehicle[4].out[9].channel delay 0.1s
attr mutable ""
attr unit s
par VehiclesNetwork.vehicle[4].out[10].channel typename "\"ned.DelayChannel\""
par VehiclesNetwork.vehicle[4].out[10].channel disabled false
attr mutable ""
par VehiclesNetwork.vehicle[4].out[10].channel delay 0.1s
attr mutable ""
attr unit s
par VehiclesNetwork.vehicle[4].out[11].channel typename "\"ned.DelayChannel\""
par VehiclesNetwork.vehicle[4].out[11].channel disabled false
attr mutable ""
par VehiclesNetwork.vehicle[4].out[11].channel delay 0.1s
attr mutable ""
attr unit s
par VehiclesNetwork.vehicle[4].out[12].channel typename "\"ned.DelayChannel\""
par VehiclesNetwork.vehicle[4].out[12].channel disabled false
attr mutable ""
par VehiclesNetwork.vehicle[4].out[12].channel delay 0.1s
attr mutable ""
attr unit s
par VehiclesNetwork.vehicle[4].out[13].channel typename "\"ned.DelayChannel\""
par VehiclesNetwork.vehicle[4].out[13].channel disabled false
attr mutable ""
par VehiclesNetwork.vehicle[4].out[13].channel delay 0.1s
attr mutable ""
attr unit s
par VehiclesNetwork.vehicle[4].out[14].channel typename "\"ned.DelayChannel\""
par VehiclesNetwork.vehicle[4].out[14].channel disabled false
attr mutable ""
par VehiclesNetwork.vehicle[4].out[14].channel delay 0.1s
attr mutable ""
attr unit s
par VehiclesNetwork.vehicle[4].out[15].channel typename "\"ned.DelayChannel\""
par VehiclesNetwork.vehicle[4].out[15].channel disabled false
attr mutable ""
par VehiclesNetwork.vehicle[4].out[15].channel delay 0.1s
attr mutable ""
attr unit s
par VehiclesNetwork.vehicle[4].out[16].channel typename "\"ned.DelayChannel\""
par VehiclesNetwork.vehicle[4].out[16].channel disabled false
attr mutable ""
par VehiclesNetwork.vehicle[4].out[16].channel delay 0.1s
attr mutable ""
attr unit s
par VehiclesNetwork.vehicle[4].out[17].channel typename "\"ned.DelayChannel\""
par VehiclesNetwork.vehicle[4].out[17].channel disabled false
attr mutable ""
par VehiclesNetwork.vehicle[4].out[17].channel delay 0.1s
attr mutable ""
attr unit s
par VehiclesNetwork.vehicle[4].out[18].channel typename "\"ned.DelayChannel\""
par VehiclesNetwork.vehicle[4].out[18].channel disabled false
attr mutable ""
par VehiclesNetwork.vehicle[4].out[18].channel delay 0.1s
attr mutable ""
attr unit s
par VehiclesNetwork.vehicle[4].out[19].channel typename "\"ned.DelayChannel\""
par VehiclesNetwork.vehicle[4].out[19].channel disabled false
attr mutable ""
par VehiclesNetwork.vehicle[4].out[19].channel delay 0.1s
attr mutable ""
attr unit s
par VehiclesNetwork.vehicle[4].out[20].channel typename "\"ned.DelayChannel\""
par VehiclesNetwork.vehicle[4].out[20].channel disabled false
attr mutable ""
par VehiclesNetwork.vehicle[4].out[20].channel delay 0.1s
attr mutable ""
attr unit s
par VehiclesNetwork.vehicle[4].out[21].channel typename "\"ned.DelayChannel\""
par VehiclesNetwork.vehicle[4].out[21].channel disabled false
attr mutable ""
par VehiclesNetwork.vehicle[4].out[21].channel delay 0.1s
attr mutable ""
attr unit s
par VehiclesNetwork.vehicle[4].out[22].channel typename "\"ned.DelayChannel\""
par VehiclesNetwork.vehicle[4].out[22].channel disabled false
attr mutable ""
par VehiclesNetwork.vehicle[4].out[22].channel delay 0.1s
attr mutable ""
attr unit s
par VehiclesNetwork.vehicle[4].out[23].channel typename "\"ned.DelayChannel\""
par VehiclesNetwork.vehicle[4].out[23].channel disabled false
attr mutable ""
par VehiclesNetwork.vehicle[4].out[23].channel delay 0.1s
attr mutable ""
attr unit s
par VehiclesNetwork.vehicle[4].out[24].channel typename "\"ned.DelayChannel\""
par VehiclesNetwork.vehicle[4].out[24].channel disabled false
attr mutable ""
par VehiclesNetwork.vehicle[4].out[24].channel delay 0.1s
attr mutable ""
attr unit s
par VehiclesNetwork.vehicle[4].out[25].channel typename "\"ned.DelayChannel\""
par VehiclesNetwork.vehicle[4].out[25].channel disabled false
attr mutable ""
par VehiclesNetwork.vehicle[4].out[25].channel delay 0.1s
attr mutable ""
attr unit s
par VehiclesNetwork.vehicle[4].out[26].channel typename "\"ned.DelayChannel\""
par VehiclesNetwork.vehicle[4].out[26].channel disabled false
attr mutable ""
par VehiclesNetwork.vehicle[4].out[26].channel delay 0.1s
attr mutable ""
attr unit s
par VehiclesNetwork.vehicle[4].out[27].channel typename "\"ned.DelayChannel\""
par VehiclesNetwork.vehicle[4].out[27].channel disabled false
attr mutable ""
par VehiclesNetwork.vehicle[4].out[27].channel delay 0.1s
attr mutable ""
attr unit s
par VehiclesNetwork.vehicle[4].out[28].channel typename "\"ned.DelayChannel\""
par VehiclesNetwork.vehicle[4].out[28].channel disabled false
attr mutable ""
par VehiclesNetwork.vehicle[4].out[28].channel delay 0.1s
attr mutable ""
attr unit s
par VehiclesNetwork.vehicle[4].out[29].channel typename "\"ned.DelayChannel\""
par VehiclesNetwork.vehicle[4].out[29].channel disabled false
attr mutable ""
par VehiclesNetwork.vehicle[4].out[29].channel delay 0.1s
attr mutable ""
attr unit s
par VehiclesNetwork.vehicle[4].out[30].channel typename "\"ned.DelayChannel\""
par VehiclesNetwork.vehicle[4].out[30].channel disabled false
attr mutable ""
par VehiclesNetwork.vehicle[4].out[30].channel delay 0.1s
attr mutable ""
attr unit s
par VehiclesNetwork.vehicle[4].out[31].channel typename "\"ned.DelayChannel\""
par VehiclesNetwork.vehicle[4].out[31].channel disabled false
attr mutable ""
par VehiclesNetwork.vehicle[4].out[31].channel delay 0.1s
attr mutable ""
attr unit s
par VehiclesNetwork.vehicle[5].out[0].channel typename "\"ned.DelayChannel\""
par VehiclesNetwork.vehicle[5].out[0].channel disabled false
attr mutable ""
par VehiclesNetwork.vehicle[5].out[0].channel delay 0.1s
attr mutable ""
attr unit s
par VehiclesNetwork.vehicle[5].out[1].channel typename "\"ned.DelayChannel\""
par VehiclesNetwork.vehicle[5].out[1].channel disabled false
attr mutable ""
par VehiclesNetwork.vehicle[5].out[1].channel delay 0.1s
attr mutable ""
attr unit s
par VehiclesNetwork.vehicle[5].out[2].channel typename "\"ned.DelayChannel\""
par VehiclesNetwork.vehicle[5].out[2].channel disabled false
attr mutable ""
par VehiclesNetwork.vehicle[5].out[2].channel delay 0.1s
attr mutable ""
attr unit s
par VehiclesNetwork.vehicle[5].out[3].channel typename "\"ned.DelayChannel\""
par VehiclesNetwork.vehicle[5].out[3].channel disabled false
attr mutable ""
par VehiclesNetwork.vehicle[5].out[3].channel delay 0.1s
attr mutable ""
attr unit s
par VehiclesNetwork.vehicle[5].out[4].channel typename "\"ned.DelayChannel\""
par VehiclesNetwork.vehicle[5].out[4].channel disabled false
attr mutable ""
par VehiclesNetwork.vehicle[5].out[4].channel delay 0.1s
attr mutable ""
attr unit s
par VehiclesNetwork.vehicle[5].out[6].channel typename "\"ned.DelayChannel\""
par VehiclesNetwork.vehicle[5].out[6].channel disabled false
attr mutable ""
par VehiclesNetwork.vehicle[5].out[6].channel delay 0.1s
attr mutable ""
attr unit s
par VehiclesNetwork.vehicle[5].out[7].channel typename "\"ned.DelayChannel\""
par VehiclesNetwork.vehicle[5].out[7].channel disabled false
attr mutable ""
par VehiclesNetwork.vehicle[5].out[7].channel delay 0.1s
attr mutable ""
attr unit s
par VehiclesNetwork.vehicle[5].out[8].channel typename "\"ned.DelayChannel\""
par VehiclesNetwork.vehicle[5].out[8].channel disabled false
attr mutable ""
par VehiclesNetwork.vehicle[5].out[8].channel delay 0.1s
attr mutable ""
attr unit s
par VehiclesNetwork.vehicle[5].out[9].channel typename "\"ned.DelayChannel\""
par VehiclesNetwork.vehicle[5].out[9].channel disabled false
attr mutable ""
par VehiclesNetwork.vehicle[5].out[9].channel delay 0.1s
attr mutable ""
attr unit s
par VehiclesNetwork.vehicle[5].out[10].channel typename "\"ned.DelayChannel\""
par VehiclesNetwork.vehicle[5].out[10].channel disabled false
attr mutable ""
par VehiclesNetwork.vehicle[5].out[10].channel delay 0.1s
attr mutable ""
attr unit s
par VehiclesNetwork.vehicle[5].out[11].channel typename "\"ned.DelayChannel\""
par VehiclesNetwork.vehicle[5].out[11].channel disabled false
attr mutable ""
par VehiclesNetwork.vehicle[5].out[11].channel delay 0.1s
attr mutable ""
attr unit s
par VehiclesNetwork.vehicle[5].out[12].channel typename "\"ned.DelayChannel\""
par VehiclesNetwork.vehicle[5].out[12].channel disabled false
attr mutable ""
par VehiclesNetwork.vehicle[5].out[12].channel delay 0.1s
attr mutable ""
attr unit s
par VehiclesNetwork.vehicle[5].out[13].channel typename "\"ned.DelayChannel\""
par VehiclesNetwork.vehicle[5].out[13].channel disabled false
attr mutable ""
par VehiclesNetwork.vehicle[5].out[13].channel delay 0.1s
attr mutable ""
attr unit s
par VehiclesNetwork.vehicle[5].out[14].channel typename "\"ned.DelayChannel\""
par VehiclesNetwork.vehicle[5].out[14].channel disabled false
attr mutable ""
par VehiclesNetwork.vehicle[5].out[14].channel delay 0.1s
attr mutable ""
attr unit s
par VehiclesNetwork.vehicle[5].out[15].channel typename "\"ned.DelayChannel\""
par VehiclesNetwork.vehicle[5].out[15].channel disabled false
attr mutable ""
par VehiclesNetwork.vehicle[5].out[15].channel delay 0.1s
attr mutable ""
attr unit s
par VehiclesNetwork.vehicle[5].out[16].channel typename "\"ned.DelayChannel\""
par VehiclesNetwork.vehicle[5].out[16].channel disabled false
attr mutable ""
par VehiclesNetwork.vehicle[5].out[16].channel delay 0.1s
attr mutable ""
attr unit s
par VehiclesNetwork.vehicle[5].out[17].channel typename "\"ned.DelayChannel\""
par VehiclesNetwork.vehicle[5].out[17].channel disabled false
attr mutable ""
par VehiclesNetwork.vehicle[5].out[17].channel delay 0.1s
attr mutable ""
attr unit s
par VehiclesNetwork.vehicle[5].out[18].channel typename "\"ned.DelayChannel\""
par VehiclesNetwork.vehicle[5].out[18].channel disabled false
attr mutable ""
par VehiclesNetwork.vehicle[5].out[18].channel delay 0.1s
attr mutable ""
attr unit s
par VehiclesNetwork.vehicle[5].out[19].channel typename "\"ned.DelayChannel\""
par VehiclesNetwork.vehicle[5].out[19].channel disabled false
attr mutable ""
par VehiclesNetwork.vehicle[5].out[19].channel delay 0.1s
attr mutable ""
attr unit s
par VehiclesNetwork.vehicle[5].out[20].channel typename "\"ned.DelayChannel\""
par VehiclesNetwork.vehicle[5].out[20].channel disabled false
attr mutable ""
par VehiclesNetwork.vehicle[5].out[20].channel delay 0.1s
attr mutable ""
attr unit s
par VehiclesNetwork.vehicle[5].out[21].channel typename "\"ned.DelayChannel\""
par VehiclesNetwork.vehicle[5].out[21].channel disabled false
attr mutable ""
par VehiclesNetwork.vehicle[5].out[21].channel delay 0.1s
attr mutable ""
attr unit s
par VehiclesNetwork.vehicle[5].out[22].channel typename "\"ned.DelayChannel\""
par VehiclesNetwork.vehicle[5].out[22].channel disabled false
attr mutable ""
par VehiclesNetwork.vehicle[5].out[22].channel delay 0.1s
attr mutable ""
attr unit s
par VehiclesNetwork.vehicle[5].out[23].channel typename "\"ned.DelayChannel\""
par VehiclesNetwork.vehicle[5].out[23].channel disabled false
attr mutable ""
par VehiclesNetwork.vehicle[5].out[23].channel delay 0.1s
attr mutable ""
attr unit s
par VehiclesNetwork.vehicle[5].out[24].channel typename "\"ned.DelayChannel\""
par VehiclesNetwork.vehicle[5].out[24].channel disabled false
attr mutable ""
par VehiclesNetwork.vehicle[5].out[24].channel delay 0.1s
attr mutable ""
attr unit s
par VehiclesNetwork.vehicle[5].out[25].channel typename "\"ned.DelayChannel\""
par VehiclesNetwork.vehicle[5].out[25].channel disabled false
attr mutable ""
par VehiclesNetwork.vehicle[5].out[25].channel delay 0.1s
attr mutable ""
attr unit s
par VehiclesNetwork.vehicle[5].out[26].channel typename "\"ned.DelayChannel\""
par VehiclesNetwork.vehicle[5].out[26].channel disabled false
attr mutable ""
par VehiclesNetwork.vehicle[5].out[26].channel delay 0.1s
attr mutable ""
attr unit s
par VehiclesNetwork.vehicle[5].out[27].channel typename "\"ned.DelayChannel\""
par VehiclesNetwork.vehicle[5].out[27].channel disabled false
attr mutable ""
par VehiclesNetwork.vehicle[5].out[27].channel delay 0.1s
attr mutable ""
attr unit s
par VehiclesNetwork.vehicle[5].out[28].channel typename "\"ned.DelayChannel\""
par VehiclesNetwork.vehicle[5].out[28].channel disabled false
attr mutable ""
par VehiclesNetwork.vehicle[5].out[28].channel delay 0.1s
attr mutable ""
attr unit s
par VehiclesNetwork.vehicle[5].out[29].channel typename "\"ned.DelayChannel\""
par VehiclesNetwork.vehicle[5].out[29].channel disabled false
attr mutable ""
par VehiclesNetwork.vehicle[5].out[29].channel delay 0.1s
attr mutable ""
attr unit s
par VehiclesNetwork.vehicle[5].out[30].channel typename "\"ned.DelayChannel\""
par VehiclesNetwork.vehicle[5].out[30].channel disabled false
attr mutable ""
par VehiclesNetwork.vehicle[5].out[30].channel delay 0.1s
attr mutable ""
attr unit s
par VehiclesNetwork.vehicle[5].out[31].channel typename "\"ned.DelayChannel\""
par VehiclesNetwork.vehicle[5].out[31].channel disabled false
attr mutable ""
par VehiclesNetwork.vehicle[5].out[31].channel delay 0.1s
attr mutable ""
attr unit s
par VehiclesNetwork.vehicle[6].out[0].channel typename "\"ned.DelayChannel\""
par VehiclesNetwork.vehicle[6].out[0].channel disabled false
attr mutable ""
par VehiclesNetwork.vehicle[6].out[0].channel delay 0.1s
attr mutable ""
attr unit s
par VehiclesNetwork.vehicle[6].out[1].channel typename "\"ned.DelayChannel\""
par VehiclesNetwork.vehicle[6].out[1].channel disabled false
attr mutable ""
par VehiclesNetwork.vehicle[6].out[1].channel delay 0.1s
attr mutable ""
attr unit s
par VehiclesNetwork.vehicle[6].out[2].channel typename "\"ned.DelayChannel\""
par VehiclesNetwork.vehicle[6].out[2].channel disabled false
attr mutable ""
par VehiclesNetwork.vehicle[6].out[2].channel delay 0.1s
attr mutable ""
attr unit s
par VehiclesNetwork.vehicle[6].out[3].channel typename "\"ned.DelayChannel\""
par VehiclesNetwork.vehicle[6].out[3].channel disabled false
attr mutable ""
par VehiclesNetwork.vehicle[6].out[3].channel delay 0.1s
attr mutable ""
attr unit s
par VehiclesNetwork.vehicle[6].out[4].channel typename "\"ned.DelayChannel\""
par VehiclesNetwork.vehicle[6].out[4].channel disabled false
attr mutable ""
par VehiclesNetwork.vehicle[6].out[4].channel delay 0.1s
attr mutable ""
attr unit s
par VehiclesNetwork.vehicle[6].out[5].channel typename "\"ned.DelayChannel\""
par VehiclesNetwork.vehicle[6].out[5].channel disabled false
attr mutable ""
par VehiclesNetwork.vehicle[6].out[5].channel delay 0.1s
attr mutable ""
attr unit s
par VehiclesNetwork.vehicle[6].out[7].channel typename "\"ned.DelayChannel\""
par VehiclesNetwork.vehicle[6].out[7].channel disabled false
attr mutable ""
par VehiclesNetwork.vehicle[6].out[7].channel delay 0.1s
attr mutable ""
attr unit s
par VehiclesNetwork.vehicle[6].out[8].channel typename "\"ned.DelayChannel\""
par VehiclesNetwork.vehicle[6].out[8].channel disabled false
attr mutable ""
par VehiclesNetwork.vehicle[6].out[8].channel delay 0.1s
attr mutable ""
attr unit s
par VehiclesNetwork.vehicle[6].out[9].channel typename "\"ned.DelayChannel\""
par VehiclesNetwork.vehicle[6].out[9].channel disabled false
attr mutable ""
par VehiclesNetwork.vehicle[6].out[9].channel delay 0.1s
attr mutable ""
attr unit s
par VehiclesNetwork.vehicle[6].out[10].channel typename "\"ned.DelayChannel\""
par VehiclesNetwork.vehicle[6].out[10].channel disabled false
attr mutable ""
par VehiclesNetwork.vehicle[6].out[10].channel delay 0.1s
attr mutable ""
attr unit s
par VehiclesNetwork.vehicle[6].out[11].channel typename "\"ned.DelayChannel\""
par VehiclesNetwork.vehicle[6].out[11].channel disabled false
attr mutable ""
par VehiclesNetwork.vehicle[6].out[11].channel delay 0.1s
attr mutable ""
attr unit s
par VehiclesNetwork.vehicle[6].out[12].channel typename "\"ned.DelayChannel\""
par VehiclesNetwork.vehicle[6].out[12].channel disabled false
attr mutable ""
par VehiclesNetwork.vehicle[6].out[12].channel delay 0.1s
attr mutable ""
attr unit s
par VehiclesNetwork.vehicle[6].out[13].channel typename "\"ned.DelayChannel\""
par VehiclesNetwork.vehicle[6].out[13].channel disabled false
attr mutable ""
par VehiclesNetwork.vehicle[6].out[13].channel delay 0.1s
attr mutable ""
attr unit s
par VehiclesNetwork.vehicle[6].out[14].channel typename "\"ned.DelayChannel\""
par VehiclesNetwork.vehicle[6].out[14].channel disabled false
attr mutable ""
par VehiclesNetwork.vehicle[6].out[14].channel delay 0.1s
attr mutable ""
attr unit s
par VehiclesNetwork.vehicle[6].out[15].channel typename "\"ned.DelayChannel\""
par VehiclesNetwork.vehicle[6].out[15].channel disabled false
attr mutable ""
par VehiclesNetwork.vehicle[6].out[15].channel delay 0.1s
attr mutable ""
attr unit s
par VehiclesNetwork.vehicle[6].out[16].channel typename "\"ned.DelayChannel\""
par VehiclesNetwork.vehicle[6].out[16].channel disabled false
attr mutable ""
par VehiclesNetwork.vehicle[6].out[16].channel delay 0.1s
attr mutable ""
attr unit s
par VehiclesNetwork.vehicle[6].out[17].channel typename "\"ned.DelayChannel\""
par VehiclesNetwork.vehicle[6].out[17].channel disabled false
attr mutable ""
par VehiclesNetwork.vehicle[6].out[17].channel delay 0.1s
attr mutable ""
attr unit s
par VehiclesNetwork.vehicle[6].out[18].channel typename "\"ned.DelayChannel\""
par VehiclesNetwork.vehicle[6].out[18].channel disabled false
attr mutable ""
par VehiclesNetwork.vehicle[6].out[18].channel delay 0.1s
attr mutable ""
attr unit s
par VehiclesNetwork.vehicle[6].out[19].channel typename "\"ned.DelayChannel\""
par VehiclesNetwork.vehicle[6].out[19].channel disabled false
attr mutable ""
par VehiclesNetwork.vehicle[6].out[19].channel delay 0.1s
attr mutable ""
attr unit s
par VehiclesNetwork.vehicle[6].out[20].channel typename "\"ned.DelayChannel\""
par VehiclesNetwork.vehicle[6].out[20].channel disabled false
attr mutable ""
par VehiclesNetwork.vehicle[6].out[20].channel delay 0.1s
attr mutable ""
attr unit s
par VehiclesNetwork.vehicle[6].out[21].channel typename "\"ned.DelayChannel\""
par VehiclesNetwork.vehicle[6].out[21].channel disabled false
attr mutable ""
par VehiclesNetwork.vehicle[6].out[21].channel delay 0.1s
attr mutable ""
attr unit s
par VehiclesNetwork.vehicle[6].out[22].channel typename "\"ned.DelayChannel\""
par VehiclesNetwork.vehicle[6].out[22].channel disabled false
attr mutable ""
par VehiclesNetwork.vehicle[6].out[22].channel delay 0.1s
attr mutable ""
attr unit s
par VehiclesNetwork.vehicle[6].out[23].channel typename "\"ned.DelayChannel\""
par VehiclesNetwork.vehicle[6].out[23].channel disabled false
attr mutable ""
par VehiclesNetwork.vehicle[6].out[23].channel delay 0.1s
attr mutable ""
attr unit s
par VehiclesNetwork.vehicle[6].out[24].channel typename "\"ned.DelayChannel\""
par VehiclesNetwork.vehicle[6].out[24].channel disabled false
attr mutable ""
par VehiclesNetwork.vehicle[6].out[24].channel delay 0.1s
attr mutable ""
attr unit s
par VehiclesNetwork.vehicle[6].out[25].channel typename "\"ned.DelayChannel\""
par VehiclesNetwork.vehicle[6].out[25].channel disabled false
attr mutable ""
par VehiclesNetwork.vehicle[6].out[25].channel delay 0.1s
attr mutable ""
attr unit s
par VehiclesNetwork.vehicle[6].out[26].channel typename "\"ned.DelayChannel\""
par VehiclesNetwork.vehicle[6].out[26].channel disabled false
attr mutable ""
par VehiclesNetwork.vehicle[6].out[26].channel delay 0.1s
attr mutable ""
attr unit s
par VehiclesNetwork.vehicle[6].out[27].channel typename "\"ned.DelayChannel\""
par VehiclesNetwork.vehicle[6].out[27].channel disabled false
attr mutable ""
par VehiclesNetwork.vehicle[6].out[27].channel delay 0.1s
attr mutable ""
attr unit s
par VehiclesNetwork.vehicle[6].out[28].channel typename "\"ned.DelayChannel\""
par VehiclesNetwork.vehicle[6].out[28].channel disabled false
attr mutable ""
par VehiclesNetwork.vehicle[6].out[28].channel delay 0.1s
attr mutable ""
attr unit s
par VehiclesNetwork.vehicle[6].out[29].channel typename "\"ned.DelayChannel\""
par VehiclesNetwork.vehicle[6].out[29].channel disabled false
attr mutable ""
par VehiclesNetwork.vehicle[6].out[29].channel delay 0.1s
attr mutable ""
attr unit s
par VehiclesNetwork.vehicle[6].out[30].channel typename "\"ned.DelayChannel\""
par VehiclesNetwork.vehicle[6].out[30].channel disabled false
attr mutable ""
par VehiclesNetwork.vehicle[6].out[30].channel delay 0.1s
attr mutable ""
attr unit s
par VehiclesNetwork.vehicle[6].out[31].channel typename "\"ned.DelayChannel\""
par VehiclesNetwork.vehicle[6].out[31].channel disabled false
attr mutable ""
par VehiclesNetwork.vehicle[6].out[31].channel delay 0.1s
attr mutable ""
attr unit s
par VehiclesNetwork.vehicle[7].out[0].channel typename "\"ned.DelayChannel\""
par VehiclesNetwork.vehicle[7].out[0].channel disabled false
attr mutable ""
par VehiclesNetwork.vehicle[7].out[0].channel delay 0.1s
attr mutable ""
attr unit s
par VehiclesNetwork.vehicle[7].out[1].channel typename "\"ned.DelayChannel\""
par VehiclesNetwork.vehicle[7].out[1].channel disabled false
attr mutable ""
par VehiclesNetwork.vehicle[7].out[1].channel delay 0.1s
attr mutable ""
attr unit s
par VehiclesNetwork.vehicle[7].out[2].channel typename "\"ned.DelayChannel\""
par VehiclesNetwork.vehicle[7].out[2].channel disabled false
attr mutable ""
par VehiclesNetwork.vehicle[7].out[2].channel delay 0.1s
attr mutable ""
attr unit s
par VehiclesNetwork.vehicle[7].out[3].channel typename "\"ned.DelayChannel\""
par VehiclesNetwork.vehicle[7].out[3].channel disabled false
attr mutable ""
par VehiclesNetwork.vehicle[7].out[3].channel delay 0.1s
attr mutable ""
attr unit s
par VehiclesNetwork.vehicle[7].out[4].channel typename "\"ned.DelayChannel\""
par VehiclesNetwork.vehicle[7].out[4].channel disabled false
attr mutable ""
par VehiclesNetwork.vehicle[7].out[4].channel delay 0.1s
attr mutable ""
attr unit s
par VehiclesNetwork.vehicle[7].out[5].channel typename "\"ned.DelayChannel\""
par VehiclesNetwork.vehicle[7].out[5].channel disabled false
attr mutable ""
par VehiclesNetwork.vehicle[7].out[5].channel delay 0.1s
attr mutable ""
attr unit s
par VehiclesNetwork.vehicle[7].out[6].channel typename "\"ned.DelayChannel\""
par VehiclesNetwork.vehicle[7].out[6].channel disabled false
attr mutable ""
par VehiclesNetwork.vehicle[7].out[6].channel delay 0.1s
attr mutable ""
attr unit s
par VehiclesNetwork.vehicle[7].out[8].channel typename "\"ned.DelayChannel\""
par VehiclesNetwork.vehicle[7].out[8].channel disabled false
attr mutable ""
par VehiclesNetwork.vehicle[7].out[8].channel delay 0.1s
attr mutable ""
attr unit s
par VehiclesNetwork.vehicle[7].out[9].channel typename "\"ned.DelayChannel\""
par VehiclesNetwork.vehicle[7].out[9].channel disabled false
attr mutable ""
par VehiclesNetwork.vehicle[7].out[9].channel delay 0.1s
attr mutable ""
attr unit s
par VehiclesNetwork.vehicle[7].out[10].channel typename "\"ned.DelayChannel\""
par VehiclesNetwork.vehicle[7].out[10].channel disabled false
attr mutable ""
par VehiclesNetwork.vehicle[7].out[10].channel delay 0.1s
attr mutable ""
attr unit s
par VehiclesNetwork.vehicle[7].out[11].channel typename "\"ned.DelayChannel\""
par VehiclesNetwork.vehicle[7].out[11].channel disabled false
attr mutable ""
par VehiclesNetwork.vehicle[7].out[11].channel delay 0.1s
attr mutable ""
attr unit s
par VehiclesNetwork.vehicle[7].out[12].channel typename "\"ned.DelayChannel\""
par VehiclesNetwork.vehicle[7].out[12].channel disabled false
attr mutable ""
par VehiclesNetwork.vehicle[7].out[12].channel delay 0.1s
attr mutable ""
attr unit s
par VehiclesNetwork.vehicle[7].out[13].channel typename "\"ned.DelayChannel\""
par VehiclesNetwork.vehicle[7].out[13].channel disabled false
attr mutable ""
par VehiclesNetwork.vehicle[7].out[13].channel delay 0.1s
attr mutable ""
attr unit s
par VehiclesNetwork.vehicle[7].out[14].channel typename "\"ned.DelayChannel\""
par VehiclesNetwork.vehicle[7].out[14].channel disabled false
attr mutable ""
par VehiclesNetwork.vehicle[7].out[14].channel delay 0.1s
attr mutable ""
attr unit s
par VehiclesNetwork.vehicle[7].out[15].channel typename "\"ned.DelayChannel\""
par VehiclesNetwork.vehicle[7].out[15].channel disabled false
attr mutable ""
par VehiclesNetwork.vehicle[7].out[15].channel delay 0.1s
attr mutable ""
attr unit s
par VehiclesNetwork.vehicle[7].out[16].channel typename "\"ned.DelayChannel\""
par VehiclesNetwork.vehicle[7].out[16].channel disabled false
attr mutable ""
par VehiclesNetwork.vehicle[7].out[16].channel delay 0.1s
attr mutable ""
attr unit s
par VehiclesNetwork.vehicle[7].out[17].channel typename "\"ned.DelayChannel\""
par VehiclesNetwork.vehicle[7].out[17].channel disabled false
attr mutable ""
par VehiclesNetwork.vehicle[7].out[17].channel delay 0.1s
attr mutable ""
attr unit s
par VehiclesNetwork.vehicle[7].out[18].channel typename "\"ned.DelayChannel\""
par VehiclesNetwork.vehicle[7].out[18].channel disabled false
attr mutable ""
par VehiclesNetwork.vehicle[7].out[18].channel delay 0.1s
attr mutable ""
attr unit s
par VehiclesNetwork.vehicle[7].out[19].channel typename "\"ned.DelayChannel\""
par VehiclesNetwork.vehicle[7].out[19].channel disabled false
attr mutable ""
par VehiclesNetwork.vehicle[7].out[19].channel delay 0.1s
attr mutable ""
attr unit s
par VehiclesNetwork.vehicle[7].out[20].channel typename "\"ned.DelayChannel\""
par VehiclesNetwork.vehicle[7].out[20].channel disabled false
attr mutable ""
par VehiclesNetwork.vehicle[7].out[20].channel delay 0.1s
attr mutable ""
attr unit s
par VehiclesNetwork.vehicle[7].out[21].channel typename "\"ned.DelayChannel\""
par VehiclesNetwork.vehicle[7].out[21].channel disabled false
attr mutable ""
par VehiclesNetwork.vehicle[7].out[21].channel delay 0.1s
attr mutable ""
attr unit s
par VehiclesNetwork.vehicle[7].out[22].channel typename "\"ned.DelayChannel\""
par VehiclesNetwork.vehicle[7].out[22].channel disabled false
attr mutable ""
par VehiclesNetwork.vehicle[7].out[22].channel delay 0.1s
attr mutable ""
attr unit s
par VehiclesNetwork.vehicle[7].out[23].channel typename "\"ned.DelayChannel\""
par VehiclesNetwork.vehicle[7].out[23].channel disabled false
attr mutable ""
par VehiclesNetwork.vehicle[7].out[23].channel delay 0.1s
attr mutable ""
attr unit s
par VehiclesNetwork.vehicle[7].out[24].channel typename "\"ned.DelayChannel\""
par VehiclesNetwork.vehicle[7].out[24].channel disabled false
attr mutable ""
par VehiclesNetwork.vehicle[7].out[24].channel delay 0.1s
attr mutable ""
attr unit s
par VehiclesNetwork.vehicle[7].out[25].channel typename "\"ned.DelayChannel\""
par VehiclesNetwork.vehicle[7].out[25].channel disabled false
attr mutable ""
par VehiclesNetwork.vehicle[7].out[25].channel delay 0.1s
attr mutable ""
attr unit s
par VehiclesNetwork.vehicle[7].out[26].channel typename "\"ned.DelayChannel\""
par VehiclesNetwork.vehicle[7].out[26].channel disabled false
attr mutable ""
par VehiclesNetwork.vehicle[7].out[26].channel delay 0.1s
attr mutable ""
attr unit s
par VehiclesNetwork.vehicle[7].out[27].channel typename "\"ned.DelayChannel\""
par VehiclesNetwork.vehicle[7].out[27].channel disabled false
attr mutable ""
par VehiclesNetwork.vehicle[7].out[27].channel delay 0.1s
attr mutable ""
attr unit s
par VehiclesNetwork.vehicle[7].out[28].channel typename "\"ned.DelayChannel\""
par VehiclesNetwork.vehicle[7].out[28].channel disabled false
attr mutable ""
par VehiclesNetwork.vehicle[7].out[28].channel delay 0.1s
attr mutable ""
attr unit s
par VehiclesNetwork.vehicle[7].out[29].channel typename "\"ned.DelayChannel\""
par VehiclesNetwork.vehicle[7].out[29].channel disabled false
attr mutable ""
par VehiclesNetwork.vehicle[7].out[29].channel delay 0.1s
attr mutable ""
attr unit s
par VehiclesNetwork.vehicle[7].out[30].channel typename "\"ned.DelayChannel\""
par VehiclesNetwork.vehicle[7].out[30].channel disabled false
attr mutable ""
par VehiclesNetwork.vehicle[7].out[30].channel delay 0.1s
attr mutable ""
attr unit s
par VehiclesNetwork.vehicle[7].out[31].channel typename "\"ned.DelayChannel\""
par VehiclesNetwork.vehicle[7].out[31].channel disabled false
attr mutable ""
par VehiclesNetwork.vehicle[7].out[31].channel delay 0.1s
attr mutable ""
attr unit s
par VehiclesNetwork.vehicle[8].out[0].channel typename "\"ned.DelayChannel\""
par VehiclesNetwork.vehicle[8].out[0].channel disabled false
attr mutable ""
par VehiclesNetwork.vehicle[8].out[0].channel delay 0.1s
attr mutable ""
attr unit s
par VehiclesNetwork.vehicle[8].out[1].channel typename "\"ned.DelayChannel\""
par VehiclesNetwork.vehicle[8].out[1].channel disabled false
attr mutable ""
par VehiclesNetwork.vehicle[8].out[1].channel delay 0.1s
attr mutable ""
attr unit s
par VehiclesNetwork.vehicle[8].out[2].channel typename "\"ned.DelayChannel\""
par VehiclesNetwork.vehicle[8].out[2].channel disabled false
attr mutable ""
par VehiclesNetwork.vehicle[8].out[2].channel delay 0.1s
attr mutable ""
attr unit s
par VehiclesNetwork.vehicle[8].out[3].channel typename "\"ned.DelayChannel\""
par VehiclesNetwork.vehicle[8].out[3].channel disabled false
attr mutable ""
par VehiclesNetwork.vehicle[8].out[3].channel delay 0.1s
attr mutable ""
attr unit s
par VehiclesNetwork.vehicle[8].out[4].channel typename "\"ned.DelayChannel\""
par VehiclesNetwork.vehicle[8].out[4].channel disabled false
attr mutable ""
par VehiclesNetwork.vehicle[8].out[4].channel delay 0.1s
attr mutable ""
attr unit s
par VehiclesNetwork.vehicle[8].out[5].channel typename "\"ned.DelayChannel\""
par VehiclesNetwork.vehicle[8].out[5].channel disabled false
attr mutable ""
par VehiclesNetwork.vehicle[8].out[5].channel delay 0.1s
attr mutable ""
attr unit s
par VehiclesNetwork.vehicle[8].out[6].channel typename "\"ned.DelayChannel\""
par VehiclesNetwork.vehicle[8].out[6].channel disabled false
attr mutable ""
par VehiclesNetwork.vehicle[8].out[6].channel delay 0.1s
attr mutable ""
attr unit s
par VehiclesNetwork.vehicle[8].out[7].channel typename "\"ned.DelayChannel\""
par VehiclesNetwork.vehicle[8].out[7].channel disabled false
attr mutable ""
par VehiclesNetwork.vehicle[8].out[7].channel delay 0.1s
attr mutable ""
attr unit s
par VehiclesNetwork.vehicle[8].out[9].channel typename "\"ned.DelayChannel\""
par VehiclesNetwork.vehicle[8].out[9].channel disabled false
attr mutable ""
par VehiclesNetwork.vehicle[8].out[9].channel delay 0.1s
attr mutable ""
attr unit s
par VehiclesNetwork.vehicle[8].out[10].channel typename "\"ned.DelayChannel\""
par VehiclesNetwork.vehicle[8].out[10].channel disabled false
attr mutable ""
par VehiclesNetwork.vehicle[8].out[10].channel delay 0.1s
attr mutable ""
attr unit s
par VehiclesNetwork.vehicle[8].out[11].channel typename "\"ned.DelayChannel\""
par VehiclesNetwork.vehicle[8].out[11].channel disabled false
attr mutable ""
par VehiclesNetwork.vehicle[8].out[11].channel delay 0.1s
attr mutable ""
attr unit s
par VehiclesNetwork.vehicle[8].out[12].channel typename "\"ned.DelayChannel\""
par VehiclesNetwork.vehicle[8].out[12].channel disabled false
attr mutable ""
par VehiclesNetwork.vehicle[8].out[12].channel delay 0.1s
attr mutable ""
attr unit s
par VehiclesNetwork.vehicle[8].out[13].channel typename "\"ned.DelayChannel\""
par VehiclesNetwork.vehicle[8].out[13].channel disabled false
attr mutable ""
par VehiclesNetwork.vehicle[8].out[13].channel delay 0.1s
attr mutable ""
attr unit s
par VehiclesNetwork.vehicle[8].out[14].channel typename "\"ned.DelayChannel\""
par VehiclesNetwork.vehicle[8].out[14].channel disabled false
attr mutable ""
par VehiclesNetwork.vehicle[8].out[14].channel delay 0.1s
attr mutable ""
attr unit s
par VehiclesNetwork.vehicle[8].out[15].channel typename "\"ned.DelayChannel\""
par VehiclesNetwork.vehicle[8].out[15].channel disabled false
attr mutable ""
par VehiclesNetwork.vehicle[8].out[15].channel delay 0.1s
attr mutable ""
attr unit s
par VehiclesNetwork.vehicle[8].out[16].channel typename "\"ned.DelayChannel\""
par VehiclesNetwork.vehicle[8].out[16].channel disabled false
attr mutable ""
par VehiclesNetwork.vehicle[8].out[16].channel delay 0.1s
attr mutable ""
attr unit s
par VehiclesNetwork.vehicle[8].out[17].channel typename "\"ned.DelayChannel\""
par VehiclesNetwork.vehicle[8].out[17].channel disabled false
attr mutable ""
par VehiclesNetwork.vehicle[8].out[17].channel delay 0.1s
attr mutable ""
attr unit s
par VehiclesNetwork.vehicle[8].out[18].channel typename "\"ned.DelayChannel\""
par VehiclesNetwork.vehicle[8].out[18].channel disabled false
attr mutable ""
par VehiclesNetwork.vehicle[8].out[18].channel delay 0.1s
attr mutable ""
attr unit s
par VehiclesNetwork.vehicle[8].out[19].channel typename "\"ned.DelayChannel\""
par VehiclesNetwork.vehicle[8].out[19].channel disabled false
attr mutable ""
par VehiclesNetwork.vehicle[8].out[19].channel delay 0.1s
attr mutable ""
attr unit s
par VehiclesNetwork.vehicle[8].out[20].channel typename "\"ned.DelayChannel\""
par VehiclesNetwork.vehicle[8].out[20].channel disabled false
attr mutable ""
par VehiclesNetwork.vehicle[8].out[20].channel delay 0.1s
attr mutable ""
attr unit s
par VehiclesNetwork.vehicle[8].out[21].channel typename "\"ned.DelayChannel\""
par VehiclesNetwork.vehicle[8].out[21].channel disabled false
attr mutable ""
par VehiclesNetwork.vehicle[8].out[21].channel delay 0.1s
attr mutable ""
attr unit s
par VehiclesNetwork.vehicle[8].out[22].channel typename "\"ned.DelayChannel\""
par VehiclesNetwork.vehicle[8].out[22].channel disabled false
attr mutable ""
par VehiclesNetwork.vehicle[8].out[22].channel delay 0.1s
attr mutable ""
attr unit s
par VehiclesNetwork.vehicle[8].out[23].channel typename "\"ned.DelayChannel\""
par VehiclesNetwork.vehicle[8].out[23].channel disabled false
attr mutable ""
par VehiclesNetwork.vehicle[8].out[23].channel delay 0.1s
attr mutable ""
attr unit s
par VehiclesNetwork.vehicle[8].out[24].channel typename "\"ned.DelayChannel\""
par VehiclesNetwork.vehicle[8].out[24].channel disabled false
attr mutable ""
par VehiclesNetwork.vehicle[8].out[24].channel delay 0.1s
attr mutable ""
attr unit s
par VehiclesNetwork.vehicle[8].out[25].channel typename "\"ned.DelayChannel\""
par VehiclesNetwork.vehicle[8].out[25].channel disabled false
attr mutable ""
par VehiclesNetwork.vehicle[8].out[25].channel delay 0.1s
attr mutable ""
attr unit s
par VehiclesNetwork.vehicle[8].out[26].channel typename "\"ned.DelayChannel\""
par VehiclesNetwork.vehicle[8].out[26].channel disabled false
attr mutable ""
par VehiclesNetwork.vehicle[8].out[26].channel delay 0.1s
attr mutable ""
attr unit s
par VehiclesNetwork.vehicle[8].out[27].channel typename "\"ned.DelayChannel\""
par VehiclesNetwork.vehicle[8].out[27].channel disabled false
attr mutable ""
par VehiclesNetwork.vehicle[8].out[27].channel delay 0.1s
attr mutable ""
attr unit s
par VehiclesNetwork.vehicle[8].out[28].channel typename "\"ned.DelayChannel\""
par VehiclesNetwork.vehicle[8].out[28].channel disabled false
attr mutable ""
par VehiclesNetwork.vehicle[8].out[28].channel delay 0.1s
attr mutable ""
attr unit s
par VehiclesNetwork.vehicle[8].out[29].channel typename "\"ned.DelayChannel\""
par VehiclesNetwork.vehicle[8].out[29].channel disabled false
attr mutable ""
par VehiclesNetwork.vehicle[8].out[29].channel delay 0.1s
attr mutable ""
attr unit s
par VehiclesNetwork.vehicle[8].out[30].channel typename "\"ned.DelayChannel\""
par VehiclesNetwork.vehicle[8].out[30].channel disabled false
attr mutable ""
par VehiclesNetwork.vehicle[8].out[30].channel delay 0.1s
attr mutable ""
attr unit s
par VehiclesNetwork.vehicle[8].out[31].channel typename "\"ned.DelayChannel\""
par VehiclesNetwork.vehicle[8].out[31].channel disabled false
attr mutable ""
par VehiclesNetwork.vehicle[8].out[31].channel delay 0.1s
attr mutable ""
attr unit s
par VehiclesNetwork.vehicle[9].out[0].channel typename "\"ned.DelayChannel\""
par VehiclesNetwork.vehicle[9].out[0].channel disabled false
attr mutable ""
par VehiclesNetwork.vehicle[9].out[0].channel delay 0.1s
attr mutable ""
attr unit s
par VehiclesNetwork.vehicle[9].out[1].channel typename "\"ned.DelayChannel\""
par VehiclesNetwork.vehicle[9].out[1].channel disabled false
attr mutable ""
par VehiclesNetwork.vehicle[9].out[1].channel delay 0.1s
attr mutable ""
attr unit s
par VehiclesNetwork.vehicle[9].out[2].channel typename "\"ned.DelayChannel\""
par VehiclesNetwork.vehicle[9].out[2].channel disabled false
attr mutable ""
par VehiclesNetwork.vehicle[9].out[2].channel delay 0.1s
attr mutable ""
attr unit s
par VehiclesNetwork.vehicle[9].out[3].channel typename "\"ned.DelayChannel\""
par VehiclesNetwork.vehicle[9].out[3].channel disabled false
attr mutable ""
par VehiclesNetwork.vehicle[9].out[3].channel delay 0.1s
attr mutable ""
attr unit s
par VehiclesNetwork.vehicle[9].out[4].channel typename "\"ned.DelayChannel\""
par VehiclesNetwork.vehicle[9].out[4].channel disabled false
attr mutable ""
par VehiclesNetwork.vehicle[9].out[4].channel delay 0.1s
attr mutable ""
attr unit s
par VehiclesNetwork.vehicle[9].out[5].channel typename "\"ned.DelayChannel\""
par VehiclesNetwork.vehicle[9].out[5].channel disabled false
attr mutable ""
par VehiclesNetwork.vehicle[9].out[5].channel delay 0.1s
attr mutable ""
attr unit s
par VehiclesNetwork.vehicle[9].out[6].channel typename "\"ned.DelayChannel\""
par VehiclesNetwork.vehicle[9].out[6].channel disabled false
attr mutable ""
par VehiclesNetwork.vehicle[9].out[6].channel delay 0.1s
attr mutable ""
attr unit s
par VehiclesNetwork.vehicle[9].out[7].channel typename "\"ned.DelayChannel\""
par VehiclesNetwork.vehicle[9].out[7].channel disabled false
attr mutable ""
par VehiclesNetwork.vehicle[9].out[7].channel delay 0.1s
attr mutable ""
attr unit s
par VehiclesNetwork.vehicle[9].out[8].channel typename "\"ned.DelayChannel\""
par VehiclesNetwork.vehicle[9].out[8].channel disabled false
attr mutable ""
par VehiclesNetwork.vehicle[9].out[8].channel delay 0.1s
attr mutable ""
attr unit s
par VehiclesNetwork.vehicle[9].out[10].channel typename "\"ned.DelayChannel\""
par VehiclesNetwork.vehicle[9].out[10].channel disabled false
attr mutable ""
par VehiclesNetwork.vehicle[9].out[10].channel delay 0.1s
attr mutable ""
attr unit s
par VehiclesNetwork.vehicle[9].out[11].channel typename "\"ned.DelayChannel\""
par VehiclesNetwork.vehicle[9].out[11].channel disabled false
attr mutable ""
par VehiclesNetwork.vehicle[9].out[11].channel delay 0.1s
attr mutable ""
attr unit s
par VehiclesNetwork.vehicle[9].out[12].channel typename "\"ned.DelayChannel\""
par VehiclesNetwork.vehicle[9].out[12].channel disabled false
attr mutable ""
par VehiclesNetwork.vehicle[9].out[12].channel delay 0.1s
attr mutable ""
attr unit s
par VehiclesNetwork.vehicle[9].out[13].channel typename "\"ned.DelayChannel\""
par VehiclesNetwork.vehicle[9].out[13].channel disabled false
attr mutable ""
par VehiclesNetwork.vehicle[9].out[13].channel delay 0.1s
attr mutable ""
attr unit s
par VehiclesNetwork.vehicle[9].out[14].channel typename "\"ned.DelayChannel\""
par VehiclesNetwork.vehicle[9].out[14].channel disabled false
attr mutable ""
par VehiclesNetwork.vehicle[9].out[14].channel delay 0.1s
attr mutable ""
attr unit s
par VehiclesNetwork.vehicle[9].out[15].channel typename "\"ned.DelayChannel\""
par VehiclesNetwork.vehicle[9].out[15].channel disabled false
attr mutable ""
par VehiclesNetwork.vehicle[9].out[15].channel delay 0.1s
attr mutable ""
attr unit s
par VehiclesNetwork.vehicle[9].out[16].channel typename "\"ned.DelayChannel\""
par VehiclesNetwork.vehicle[9].out[16].channel disabled false
attr mutable ""
par VehiclesNetwork.vehicle[9].out[16].channel delay 0.1s
attr mutable ""
attr unit s
par VehiclesNetwork.vehicle[9].out[17].channel typename "\"ned.DelayChannel\""
par VehiclesNetwork.vehicle[9].out[17].channel disabled false
attr mutable ""
par VehiclesNetwork.vehicle[9].out[17].channel delay 0.1s
attr mutable ""
attr unit s
par VehiclesNetwork.vehicle[9].out[18].channel typename "\"ned.DelayChannel\""
par VehiclesNetwork.vehicle[9].out[18].channel disabled false
attr mutable ""
par VehiclesNetwork.vehicle[9].out[18].channel delay 0.1s
attr mutable ""
attr unit s
par VehiclesNetwork.vehicle[9].out[19].channel typename "\"ned.DelayChannel\""
par VehiclesNetwork.vehicle[9].out[19].channel disabled false
attr mutable ""
par VehiclesNetwork.vehicle[9].out[19].channel delay 0.1s
attr mutable ""
attr unit s
par VehiclesNetwork.vehicle[9].out[20].channel typename "\"ned.DelayChannel\""
par VehiclesNetwork.vehicle[9].out[20].channel disabled false
attr mutable ""
par VehiclesNetwork.vehicle[9].out[20].channel delay 0.1s
attr mutable ""
attr unit s
par VehiclesNetwork.vehicle[9].out[21].channel typename "\"ned.DelayChannel\""
par VehiclesNetwork.vehicle[9].out[21].channel disabled false
attr mutable ""
par VehiclesNetwork.vehicle[9].out[21].channel delay 0.1s
attr mutable ""
attr unit s
par VehiclesNetwork.vehicle[9].out[22].channel typename "\"ned.DelayChannel\""
par VehiclesNetwork.vehicle[9].out[22].channel disabled false
attr mutable ""
par VehiclesNetwork.vehicle[9].out[22].channel delay 0.1s
attr mutable ""
attr unit s
par VehiclesNetwork.vehicle[9].out[23].channel typename "\"ned.DelayChannel\""
par VehiclesNetwork.vehicle[9].out[23].channel disabled false
attr mutable ""
par VehiclesNetwork.vehicle[9].out[23].channel delay 0.1s
attr mutable ""
attr unit s
par VehiclesNetwork.vehicle[9].out[24].channel typename "\"ned.DelayChannel\""
par VehiclesNetwork.vehicle[9].out[24].channel disabled false
attr mutable ""
par VehiclesNetwork.vehicle[9].out[24].channel delay 0.1s
attr mutable ""
attr unit s
par VehiclesNetwork.vehicle[9].out[25].channel typename "\"ned.DelayChannel\""
par VehiclesNetwork.vehicle[9].out[25].channel disabled false
attr mutable ""
par VehiclesNetwork.vehicle[9].out[25].channel delay 0.1s
attr mutable ""
attr unit s
par VehiclesNetwork.vehicle[9].out[26].channel typename "\"ned.DelayChannel\""
par VehiclesNetwork.vehicle[9].out[26].channel disabled false
attr mutable ""
par VehiclesNetwork.vehicle[9].out[26].channel delay 0.1s
attr mutable ""
attr unit s
par VehiclesNetwork.vehicle[9].out[27].channel typename "\"ned.DelayChannel\""
par VehiclesNetwork.vehicle[9].out[27].channel disabled false
attr mutable ""
par VehiclesNetwork.vehicle[9].out[27].channel delay 0.1s
attr mutable ""
attr unit s
par VehiclesNetwork.vehicle[9].out[28].channel typename "\"ned.DelayChannel\""
par VehiclesNetwork.vehicle[9].out[28].channel disabled false
attr mutable ""
par VehiclesNetwork.vehicle[9].out[28].channel delay 0.1s
attr mutable ""
attr unit s
par VehiclesNetwork.vehicle[9].out[29].channel typename "\"ned.DelayChannel\""
par VehiclesNetwork.vehicle[9].out[29].channel disabled false
attr mutable ""
par VehiclesNetwork.vehicle[9].out[29].channel delay 0.1s
attr mutable ""
attr unit s
par VehiclesNetwork.vehicle[9].out[30].channel typename "\"ned.DelayChannel\""
par VehiclesNetwork.vehicle[9].out[30].channel disabled false
attr mutable ""
par VehiclesNetwork.vehicle[9].out[30].channel delay 0.1s
attr mutable ""
attr unit s
par VehiclesNetwork.vehicle[9].out[31].channel typename "\"ned.DelayChannel\""
par VehiclesNetwork.vehicle[9].out[31].channel disabled false
attr mutable ""
par VehiclesNetwork.vehicle[9].out[31].channel delay 0.1s
attr mutable ""
attr unit s
par VehiclesNetwork.vehicle[10].out[0].channel typename "\"ned.DelayChannel\""
par VehiclesNetwork.vehicle[10].out[0].channel disabled false
attr mutable ""
par VehiclesNetwork.vehicle[10].out[0].channel delay 0.1s
attr mutable ""
attr unit s
par VehiclesNetwork.vehicle[10].out[1].channel typename "\"ned.DelayChannel\""
par VehiclesNetwork.vehicle[10].out[1].channel disabled false
attr mutable ""
par VehiclesNetwork.vehicle[10].out[1].channel delay 0.1s
attr mutable ""
attr unit s
par VehiclesNetwork.vehicle[10].out[2].channel typename "\"ned.DelayChannel\""
par VehiclesNetwork.vehicle[10].out[2].channel disabled false
attr mutable ""
par VehiclesNetwork.vehicle[10].out[2].channel delay 0.1s
attr mutable ""
attr unit s
par VehiclesNetwork.vehicle[10].out[3].channel typename "\"ned.DelayChannel\""
par VehiclesNetwork.vehicle[10].out[3].channel disabled false
attr mutable ""
par VehiclesNetwork.vehicle[10].out[3].channel delay 0.1s
attr mutable ""
attr unit s
par VehiclesNetwork.vehicle[10].out[4].channel typename "\"ned.DelayChannel\""
par VehiclesNetwork.vehicle[10].out[4].channel disabled false
attr mutable ""
par VehiclesNetwork.vehicle[10].out[4].channel delay 0.1s
attr mutable ""
attr unit s
par VehiclesNetwork.vehicle[10].out[5].channel typename "\"ned.DelayChannel\""
par VehiclesNetwork.vehicle[10].out[5].channel disabled false
attr mutable ""
par VehiclesNetwork.vehicle[10].out[5].channel delay 0.1s
attr mutable ""
attr unit s
par VehiclesNetwork.vehicle[10].out[6].channel typename "\"ned.DelayChannel\""
[...]
attr mutable ""
par VehiclesNetwork.vehicle[30].out[12].channel delay 0.1s
attr mutable ""
attr unit s
par VehiclesNetwork.vehicle[30].out[13].channel typename "\"ned.DelayChannel\""
par VehiclesNetwork.vehicle[30].out[13].channel disabled false
attr mutable ""
par VehiclesNetwork.vehicle[30].out[13].channel delay 0.1s
attr mutable ""
attr unit s
par VehiclesNetwork.vehicle[30].out[14].channel typename "\"ned.DelayChannel\""
par VehiclesNetwork.vehicle[30].out[14].channel disabled false
attr mutable ""
par VehiclesNetwork.vehicle[30].out[14].channel delay 0.1s
attr mutable ""
attr unit s
par VehiclesNetwork.vehicle[30].out[15].channel typename "\"ned.DelayChannel\""
par VehiclesNetwork.vehicle[30].out[15].channel disabled false
attr mutable ""
par VehiclesNetwork.vehicle[30].out[15].channel delay 0.1s
attr mutable ""
attr unit s
par VehiclesNetwork.vehicle[30].out[16].channel typename "\"ned.DelayChannel\""
par VehiclesNetwork.vehicle[30].out[16].channel disabled false
attr mutable ""
par VehiclesNetwork.vehicle[30].out[16].channel delay 0.1s
attr mutable ""
attr unit s
par VehiclesNetwork.vehicle[30].out[17].channel typename "\"ned.DelayChannel\""
par VehiclesNetwork.vehicle[30].out[17].channel disabled false
attr mutable ""
par VehiclesNetwork.vehicle[30].out[17].channel delay 0.1s
attr mutable ""
attr unit s
par VehiclesNetwork.vehicle[30].out[18].channel typename "\"ned.DelayChannel\""
par VehiclesNetwork.vehicle[30].out[18].channel disabled false
attr mutable ""
par VehiclesNetwork.vehicle[30].out[18].channel delay 0.1s
attr mutable ""
attr unit s
par VehiclesNetwork.vehicle[30].out[19].channel typename "\"ned.DelayChannel\""
par VehiclesNetwork.vehicle[30].out[19].channel disabled false
attr mutable ""
par VehiclesNetwork.vehicle[30].out[19].channel delay 0.1s
attr mutable ""
attr unit s
par VehiclesNetwork.vehicle[30].out[20].channel typename "\"ned.DelayChannel\""
par VehiclesNetwork.vehicle[30].out[20].channel disabled false
attr mutable ""
par VehiclesNetwork.vehicle[30].out[20].channel delay 0.1s
attr mutable ""
attr unit s
par VehiclesNetwork.vehicle[30].out[21].channel typename "\"ned.DelayChannel\""
par VehiclesNetwork.vehicle[30].out[21].channel disabled false
attr mutable ""
par VehiclesNetwork.vehicle[30].out[21].channel delay 0.1s
attr mutable ""
attr unit s
par VehiclesNetwork.vehicle[30].out[22].channel typename "\"ned.DelayChannel\""
par VehiclesNetwork.vehicle[30].out[22].channel disabled false
attr mutable ""
par VehiclesNetwork.vehicle[30].out[22].channel delay 0.1s
attr mutable ""
attr unit s
par VehiclesNetwork.vehicle[30].out[23].channel typename "\"ned.DelayChannel\""
par VehiclesNetwork.vehicle[30].out[23].channel disabled false
attr mutable ""
par VehiclesNetwork.vehicle[30].out[23].channel delay 0.1s
attr mutable ""
attr unit s
par VehiclesNetwork.vehicle[30].out[24].channel typename "\"ned.DelayChannel\""
par VehiclesNetwork.vehicle[30].out[24].channel disabled false
attr mutable ""
par VehiclesNetwork.vehicle[30].out[24].channel delay 0.1s
attr mutable ""
attr unit s
par VehiclesNetwork.vehicle[30].out[25].channel typename "\"ned.DelayChannel\""
par VehiclesNetwork.vehicle[30].out[25].channel disabled false
attr mutable ""
par VehiclesNetwork.vehicle[30].out[25].channel delay 0.1s
attr mutable ""
attr unit s
par VehiclesNetwork.vehicle[30].out[26].channel typename "\"ned.DelayChannel\""
par VehiclesNetwork.vehicle[30].out[26].channel disabled false
attr mutable ""
par VehiclesNetwork.vehicle[30].out[26].channel delay 0.1s
attr mutable ""
attr unit s
par VehiclesNetwork.vehicle[30].out[27].channel typename "\"ned.DelayChannel\""
par VehiclesNetwork.vehicle[30].out[27].channel disabled false
attr mutable ""
par VehiclesNetwork.vehicle[30].out[27].channel delay 0.1s
attr mutable ""
attr unit s
par VehiclesNetwork.vehicle[30].out[28].channel typename "\"ned.DelayChannel\""
par VehiclesNetwork.vehicle[30].out[28].channel disabled false
attr mutable ""
par VehiclesNetwork.vehicle[30].out[28].channel delay 0.1s
attr mutable ""
attr unit s
par VehiclesNetwork.vehicle[30].out[29].channel typename "\"ned.DelayChannel\""
par VehiclesNetwork.vehicle[30].out[29].channel disabled false
attr mutable ""
par VehiclesNetwork.vehicle[30].out[29].channel delay 0.1s
attr mutable ""
attr unit s
par VehiclesNetwork.vehicle[30].out[31].channel typename "\"ned.DelayChannel\""
par VehiclesNetwork.vehicle[30].out[31].channel disabled false
attr mutable ""
par VehiclesNetwork.vehicle[30].out[31].channel delay 0.1s
attr mutable ""
attr unit s
par VehiclesNetwork.vehicle[31].out[0].channel typename "\"ned.DelayChannel\""
par VehiclesNetwork.vehicle[31].out[0].channel disabled false
attr mutable ""
par VehiclesNetwork.vehicle[31].out[0].channel delay 0.1s
attr mutable ""
attr unit s
par VehiclesNetwork.vehicle[31].out[1].channel typename "\"ned.DelayChannel\""
par VehiclesNetwork.vehicle[31].out[1].channel disabled false
attr mutable ""
par VehiclesNetwork.vehicle[31].out[1].channel delay 0.1s
attr mutable ""
attr unit s
par VehiclesNetwork.vehicle[31].out[2].channel typename "\"ned.DelayChannel\""
par VehiclesNetwork.vehicle[31].out[2].channel disabled false
attr mutable ""
par VehiclesNetwork.vehicle[31].out[2].channel delay 0.1s
attr mutable ""
attr unit s
par VehiclesNetwork.vehicle[31].out[3].channel typename "\"ned.DelayChannel\""
par VehiclesNetwork.vehicle[31].out[3].channel disabled false
attr mutable ""
par VehiclesNetwork.vehicle[31].out[3].channel delay 0.1s
attr mutable ""
attr unit s
par VehiclesNetwork.vehicle[31].out[4].channel typename "\"ned.DelayChannel\""
par VehiclesNetwork.vehicle[31].out[4].channel disabled false
attr mutable ""
par VehiclesNetwork.vehicle[31].out[4].channel delay 0.1s
attr mutable ""
attr unit s
par VehiclesNetwork.vehicle[31].out[5].channel typename "\"ned.DelayChannel\""
par VehiclesNetwork.vehicle[31].out[5].channel disabled false
attr mutable ""
par VehiclesNetwork.vehicle[31].out[5].channel delay 0.1s
attr mutable ""
attr unit s
par VehiclesNetwork.vehicle[31].out[6].channel typename "\"ned.DelayChannel\""
par VehiclesNetwork.vehicle[31].out[6].channel disabled false
attr mutable ""
par VehiclesNetwork.vehicle[31].out[6].channel delay 0.1s
attr mutable ""
attr unit s
par VehiclesNetwork.vehicle[31].out[7].channel typename "\"ned.DelayChannel\""
par VehiclesNetwork.vehicle[31].out[7].channel disabled false
attr mutable ""
par VehiclesNetwork.vehicle[31].out[7].channel delay 0.1s
attr mutable ""
attr unit s
par VehiclesNetwork.vehicle[31].out[8].channel typename "\"ned.DelayChannel\""
par VehiclesNetwork.vehicle[31].out[8].channel disabled false
attr mutable ""
par VehiclesNetwork.vehicle[31].out[8].channel delay 0.1s
attr mutable ""
attr unit s
par VehiclesNetwork.vehicle[31].out[9].channel typename "\"ned.DelayChannel\""
par VehiclesNetwork.vehicle[31].out[9].channel disabled false
attr mutable ""
par VehiclesNetwork.vehicle[31].out[9].channel delay 0.1s
attr mutable ""
attr unit s
par VehiclesNetwork.vehicle[31].out[10].channel typename "\"ned.DelayChannel\""
par VehiclesNetwork.vehicle[31].out[10].channel disabled false
attr mutable ""
par VehiclesNetwork.vehicle[31].out[10].channel delay 0.1s
attr mutable ""
attr unit s
par VehiclesNetwork.vehicle[31].out[11].channel typename "\"ned.DelayChannel\""
par VehiclesNetwork.vehicle[31].out[11].channel disabled false
attr mutable ""
par VehiclesNetwork.vehicle[31].out[11].channel delay 0.1s
attr mutable ""
attr unit s
par VehiclesNetwork.vehicle[31].out[12].channel typename "\"ned.DelayChannel\""
par VehiclesNetwork.vehicle[31].out[12].channel disabled false
attr mutable ""
par VehiclesNetwork.vehicle[31].out[12].channel delay 0.1s
attr mutable ""
attr unit s
par VehiclesNetwork.vehicle[31].out[13].channel typename "\"ned.DelayChannel\""
par VehiclesNetwork.vehicle[31].out[13].channel disabled false
attr mutable ""
par VehiclesNetwork.vehicle[31].out[13].channel delay 0.1s
attr mutable ""
attr unit s
par VehiclesNetwork.vehicle[31].out[14].channel typename "\"ned.DelayChannel\""
par VehiclesNetwork.vehicle[31].out[14].channel disabled false
attr mutable ""
par VehiclesNetwork.vehicle[31].out[14].channel delay 0.1s
attr mutable ""
attr unit s
par VehiclesNetwork.vehicle[31].out[15].channel typename "\"ned.DelayChannel\""
par VehiclesNetwork.vehicle[31].out[15].channel disabled false
attr mutable ""
par VehiclesNetwork.vehicle[31].out[15].channel delay 0.1s
attr mutable ""
attr unit s
par VehiclesNetwork.vehicle[31].out[16].channel typename "\"ned.DelayChannel\""
par VehiclesNetwork.vehicle[31].out[16].channel disabled false
attr mutable ""
par VehiclesNetwork.vehicle[31].out[16].channel delay 0.1s
attr mutable ""
attr unit s
par VehiclesNetwork.vehicle[31].out[17].channel typename "\"ned.DelayChannel\""
par VehiclesNetwork.vehicle[31].out[17].channel disabled false
attr mutable ""
par VehiclesNetwork.vehicle[31].out[17].channel delay 0.1s
attr mutable ""
attr unit s
par VehiclesNetwork.vehicle[31].out[18].channel typename "\"ned.DelayChannel\""
par VehiclesNetwork.vehicle[31].out[18].channel disabled false
attr mutable ""
par VehiclesNetwork.vehicle[31].out[18].channel delay 0.1s
attr mutable ""
attr unit s
par VehiclesNetwork.vehicle[31].out[19].channel typename "\"ned.DelayChannel\""
par VehiclesNetwork.vehicle[31].out[19].channel disabled false
attr mutable ""
par VehiclesNetwork.vehicle[31].out[19].channel delay 0.1s
attr mutable ""
attr unit s
par VehiclesNetwork.vehicle[31].out[20].channel typename "\"ned.DelayChannel\""
par VehiclesNetwork.vehicle[31].out[20].channel disabled false
attr mutable ""
par VehiclesNetwork.vehicle[31].out[20].channel delay 0.1s
attr mutable ""
attr unit s
par VehiclesNetwork.vehicle[31].out[21].channel typename "\"ned.DelayChannel\""
par VehiclesNetwork.vehicle[31].out[21].channel disabled false
attr mutable ""
par VehiclesNetwork.vehicle[31].out[21].channel delay 0.1s
attr mutable ""
attr unit s
par VehiclesNetwork.vehicle[31].out[22].channel typename "\"ned.DelayChannel\""
par VehiclesNetwork.vehicle[31].out[22].channel disabled false
attr mutable ""
par VehiclesNetwork.vehicle[31].out[22].channel delay 0.1s
attr mutable ""
attr unit s
par VehiclesNetwork.vehicle[31].out[23].channel typename "\"ned.DelayChannel\""
par VehiclesNetwork.vehicle[31].out[23].channel disabled false
attr mutable ""
par VehiclesNetwork.vehicle[31].out[23].channel delay 0.1s
attr mutable ""
attr unit s
par VehiclesNetwork.vehicle[31].out[24].channel typename "\"ned.DelayChannel\""
par VehiclesNetwork.vehicle[31].out[24].channel disabled false
attr mutable ""
par VehiclesNetwork.vehicle[31].out[24].channel delay 0.1s
attr mutable ""
attr unit s
par VehiclesNetwork.vehicle[31].out[25].channel typename "\"ned.DelayChannel\""
par VehiclesNetwork.vehicle[31].out[25].channel disabled false
attr mutable ""
par VehiclesNetwork.vehicle[31].out[25].channel delay 0.1s
attr mutable ""
attr unit s
par VehiclesNetwork.vehicle[31].out[26].channel typename "\"ned.DelayChannel\""
par VehiclesNetwork.vehicle[31].out[26].channel disabled false
attr mutable ""
par VehiclesNetwork.vehicle[31].out[26].channel delay 0.1s
attr mutable ""
attr unit s
par VehiclesNetwork.vehicle[31].out[27].channel typename "\"ned.DelayChannel\""
par VehiclesNetwork.vehicle[31].out[27].channel disabled false
attr mutable ""
par VehiclesNetwork.vehicle[31].out[27].channel delay 0.1s
attr mutable ""
attr unit s
par VehiclesNetwork.vehicle[31].out[28].channel typename "\"ned.DelayChannel\""
par VehiclesNetwork.vehicle[31].out[28].channel disabled false
attr mutable ""
par VehiclesNetwork.vehicle[31].out[28].channel delay 0.1s
attr mutable ""
attr unit s
par VehiclesNetwork.vehicle[31].out[29].channel typename "\"ned.DelayChannel\""
par VehiclesNetwork.vehicle[31].out[29].channel disabled false
attr mutable ""
par VehiclesNetwork.vehicle[31].out[29].channel delay 0.1s
attr mutable ""
attr unit s
par VehiclesNetwork.vehicle[31].out[30].channel typename "\"ned.DelayChannel\""
par VehiclesNetwork.vehicle[31].out[30].channel disabled false
attr mutable ""
par VehiclesNetwork.vehicle[31].out[30].channel delay 0.1s
attr mutable ""
attr unit s
par VehiclesNetwork.radioMedium.propagation typename "\"inet.physicallayer.wireless.common.propagation.ConstantSpeedPropagation\""
par VehiclesNetwork.radioMedium.propagation propagationSpeed 2.99792e+08mps
attr unit mps
par VehiclesNetwork.radioMedium.propagation ignoreMovementDuringTransmission true
par VehiclesNetwork.radioMedium.propagation ignoreMovementDuringPropagation true
par VehiclesNetwork.radioMedium.propagation ignoreMovementDuringReception true
scalar VehiclesNetwork.radioMedium.propagation "Arrival computation count" 0
par VehiclesNetwork.radioMedium.analogModel typename "\"inet.physicallayer.wireless.common.analogmodel.packetlevel.ScalarAnalogModel\""
par VehiclesNetwork.radioMedium.analogModel ignorePartialInterference false
par VehiclesNetwork.radioMedium.backgroundNoise typename "\"inet.physicallayer.wireless.common.backgroundnoise.IsotropicScalarBackgroundNoise\""
par VehiclesNetwork.radioMedium.backgroundNoise power -110dBm
attr unit dBm
par VehiclesNetwork.radioMedium.backgroundNoise bandwidth "nan Hz"
attr unit Hz
par VehiclesNetwork.radioMedium.pathLoss typename "\"inet.physicallayer.wireless.common.pathloss.FreeSpacePathLoss\""
par VehiclesNetwork.radioMedium.pathLoss alpha 2
par VehiclesNetwork.radioMedium.pathLoss systemLoss 0dB
attr unit dB
par VehiclesNetwork.radioMedium.mediumLimitCache typename "\"inet.physicallayer.wireless.common.medium.MediumLimitCache\""
par VehiclesNetwork.radioMedium.mediumLimitCache centerFrequency 2.4e+09Hz
attr unit Hz
par VehiclesNetwork.radioMedium.mediumLimitCache maxSpeed "nan mps"
attr unit mps
par VehiclesNetwork.radioMedium.mediumLimitCache maxTransmissionPower "nan W"
attr unit W
par VehiclesNetwork.radioMedium.mediumLimitCache minInterferencePower -110dBm
attr unit dBm
par VehiclesNetwork.radioMedium.mediumLimitCache minReceptionPower -85dBm
attr unit dBm
par VehiclesNetwork.radioMedium.mediumLimitCache maxAntennaGain 0dB
attr unit dB
par VehiclesNetwork.radioMedium.mediumLimitCache minInterferenceTime 1e-12s
attr unit s
par VehiclesNetwork.radioMedium.mediumLimitCache maxTransmissionDuration 0.01s
attr unit s
par VehiclesNetwork.radioMedium.mediumLimitCache maxCommunicationRange "nan m"
attr unit m
par VehiclesNetwork.radioMedium.mediumLimitCache maxInterferenceRange "nan m"
attr unit m
par VehiclesNetwork.radioMedium.communicationCache typename "\"inet.physicallayer.wireless.common.communicationcache.VectorCommunicationCache\""
par VehiclesNetwork.radioMedium typename "\"inet.physicallayer.wireless.ieee80211.packetlevel.Ieee80211ScalarRadioMedium\""
par VehiclesNetwork.radioMedium physicalEnvironmentModule "\"physicalEnvironment\""
par VehiclesNetwork.radioMedium signalAnalogRepresentation "\"scalar\""
attr enum unitDisk,scalar,dimensional
par VehiclesNetwork.radioMedium rangeFilter "\"\""
par VehiclesNetwork.radioMedium radioModeFilter false
par VehiclesNetwork.radioMedium listeningFilter false
par VehiclesNetwork.radioMedium macAddressFilter false
par VehiclesNetwork.radioMedium recordTransmissionLog false
par VehiclesNetwork.radioMedium recordReceptionLog false
scalar VehiclesNetwork.radioMedium "transmission count" 0
scalar VehiclesNetwork.radioMedium "signal send count" 0
scalar VehiclesNetwork.radioMedium "reception computation count" 0
scalar VehiclesNetwork.radioMedium "interference computation count" 0
scalar VehiclesNetwork.radioMedium "reception decision computation count" 0
scalar VehiclesNetwork.radioMedium "listening decision computation count" 0
scalar VehiclesNetwork.radioMedium "reception cache hit" nan
attr unit %
scalar VehiclesNetwork.radioMedium "interference cache hit" nan
attr unit %
scalar VehiclesNetwork.radioMedium "noise cache hit" nan
attr unit %
scalar VehiclesNetwork.radioMedium "snir cache hit" nan
attr unit %
scalar VehiclesNetwork.radioMedium "reception decision cache hit" nan
attr unit %
scalar VehiclesNetwork.radioMedium "reception result cache hit" nan
attr unit %
par VehiclesNetwork.vehicle[0] typename "\"VehicleModule\""
par VehiclesNetwork.vehicle[0] xmlFilename "\"data.xml\""
par VehiclesNetwork.vehicle[1] typename "\"VehicleModule\""
par VehiclesNetwork.vehicle[1] xmlFilename "\"data.xml\""
par VehiclesNetwork.vehicle[2] typename "\"VehicleModule\""
par VehiclesNetwork.vehicle[2] xmlFilename "\"data.xml\""
par VehiclesNetwork.vehicle[3] typename "\"VehicleModule\""
par VehiclesNetwork.vehicle[3] xmlFilename "\"data.xml\""
par VehiclesNetwork.vehicle[4] typename "\"VehicleModule\""
par VehiclesNetwork.vehicle[4] xmlFilename "\"data.xml\""
par VehiclesNetwork.vehicle[5] typename "\"VehicleModule\""
par VehiclesNetwork.vehicle[5] xmlFilename "\"data.xml\""
par VehiclesNetwork.vehicle[6] typename "\"VehicleModule\""
par VehiclesNetwork.vehicle[6] xmlFilename "\"data.xml\""
par VehiclesNetwork.vehicle[7] typename "\"VehicleModule\""
par VehiclesNetwork.vehicle[7] xmlFilename "\"data.xml\""
par VehiclesNetwork.vehicle[8] typename "\"VehicleModule\""
par VehiclesNetwork.vehicle[8] xmlFilename "\"data.xml\""
par VehiclesNetwork.vehicle[9] typename "\"VehicleModule\""
par VehiclesNetwork.vehicle[9] xmlFilename "\"data.xml\""
par VehiclesNetwork.vehicle[10] typename "\"VehicleModule\""
par VehiclesNetwork.vehicle[10] xmlFilename "\"data.xml\""
par VehiclesNetwork.vehicle[11] typename "\"VehicleModule\""
par VehiclesNetwork.vehicle[11] xmlFilename "\"data.xml\""
par VehiclesNetwork.vehicle[12] typename "\"VehicleModule\""
par VehiclesNetwork.vehicle[12] xmlFilename "\"data.xml\""
par VehiclesNetwork.vehicle[13] typename "\"VehicleModule\""
par VehiclesNetwork.vehicle[13] xmlFilename "\"data.xml\""
par VehiclesNetwork.vehicle[14] typename "\"VehicleModule\""
par VehiclesNetwork.vehicle[14] xmlFilename "\"data.xml\""
par VehiclesNetwork.vehicle[15] typename "\"VehicleModule\""
par VehiclesNetwork.vehicle[15] xmlFilename "\"data.xml\""
par VehiclesNetwork.vehicle[16] typename "\"VehicleModule\""
par VehiclesNetwork.vehicle[16] xmlFilename "\"data.xml\""
par VehiclesNetwork.vehicle[17] typename "\"VehicleModule\""
par VehiclesNetwork.vehicle[17] xmlFilename "\"data.xml\""
par VehiclesNetwork.vehicle[18] typename "\"VehicleModule\""
par VehiclesNetwork.vehicle[18] xmlFilename "\"data.xml\""
par VehiclesNetwork.vehicle[19] typename "\"VehicleModule\""
par VehiclesNetwork.vehicle[19] xmlFilename "\"data.xml\""
par VehiclesNetwork.vehicle[20] typename "\"VehicleModule\""
par VehiclesNetwork.vehicle[20] xmlFilename "\"data.xml\""
par VehiclesNetwork.vehicle[21] typename "\"VehicleModule\""
par VehiclesNetwork.vehicle[21] xmlFilename "\"data.xml\""
par VehiclesNetwork.vehicle[22] typename "\"VehicleModule\""
par VehiclesNetwork.vehicle[22] xmlFilename "\"data.xml\""
par VehiclesNetwork.vehicle[23] typename "\"VehicleModule\""
par VehiclesNetwork.vehicle[23] xmlFilename "\"data.xml\""
par VehiclesNetwork.vehicle[24] typename "\"VehicleModule\""
par VehiclesNetwork.vehicle[24] xmlFilename "\"data.xml\""
par VehiclesNetwork.vehicle[25] typename "\"VehicleModule\""
par VehiclesNetwork.vehicle[25] xmlFilename "\"data.xml\""
par VehiclesNetwork.vehicle[26] typename "\"VehicleModule\""
par VehiclesNetwork.vehicle[26] xmlFilename "\"data.xml\""
par VehiclesNetwork.vehicle[27] typename "\"VehicleModule\""
par VehiclesNetwork.vehicle[27] xmlFilename "\"data.xml\""
par VehiclesNetwork.vehicle[28] typename "\"VehicleModule\""
par VehiclesNetwork.vehicle[28] xmlFilename "\"data.xml\""
par VehiclesNetwork.vehicle[29] typename "\"VehicleModule\""
par VehiclesNetwork.vehicle[29] xmlFilename "\"data.xml\""
par VehiclesNetwork.vehicle[30] typename "\"VehicleModule\""
par VehiclesNetwork.vehicle[30] xmlFilename "\"data.xml\""
par VehiclesNetwork.vehicle[31] typename "\"VehicleModule\""
par VehiclesNetwork.vehicle[31] xmlFilename "\"data.xml\""
par VehiclesNetwork typename "\"VehiclesNetwork\""
par VehiclesNetwork numVehicles 32

